    15
 geometry
 Cl                   -4.11138764    -0.00014664    -0.61678082
 Cl                    4.11138764     0.00014664    -0.61678082
 S                     0.00000000     0.00000000     0.97767574
 C                    -1.39447679    -0.00079815    -0.22853236
 C                     1.39447679     0.00079815    -0.22853236
 C                    -2.69610987     0.00134648     0.54350336
 C                     2.69610987    -0.00134648     0.54350336
 H                    -1.31695126    -0.88964390    -0.85056114
 H                    -1.31559165     0.88609226    -0.85317524
 H                     1.31695126     0.88964390    -0.85056114
 H                     1.31559165    -0.88609226    -0.85317524
 H                    -2.81617744    -0.88611165     1.15525021
 H                    -2.81518791     0.89126558     1.15185279
 H                     2.81617744     0.88611165     1.15525021
 H                     2.81518791    -0.89126558     1.15185279
