13

W       0.00903865      -0.00474672       0.00000019
C       0.00903853      -0.13877335      -1.96643767
C       0.00903900       0.38897407       5.77689477
C       0.00903009      -1.98822862       0.27166825
C       0.00906107       1.99725328       0.00002949
C      -1.98832546       0.00451128       0.13584907
C       2.00640277       0.00453890       0.13584694
O       0.00903820      -0.21656481      -3.10778971
O       0.00903907       0.46560631       6.90128639
O       0.08194828      -3.10682803       0.42928267
O      -0.03681863       3.12689492      -0.05679328
O      -3.11072298      -0.01221251       0.28202746
O       3.13740617      -0.03785336       0.15725253
