    43
 geometry
 S                     1.27896232    -0.04881006     0.60393057
 P                    -0.11646956     1.01019138    -0.64985587
 O                     0.67850077     2.35079034    -1.16240716
 O                    -1.00161633     1.83135625     0.47377763
 C                     0.50614492     3.48575226    -0.26789001
 C                    -0.92622342     3.26917062     0.29017761
 C                     1.58020775     3.42840593     0.80535909
 C                     0.66059245     4.73809080    -1.10410553
 C                    -2.01504270     3.66843983    -0.69371500
 C                    -1.16695828     3.91180630     1.63967497
 H                     1.56467507     4.33548615     1.41029111
 H                     1.45255026     2.57479120     1.47133050
 H                     2.55680898     3.35332926     0.32694304
 H                     0.01602948     4.71480064    -1.98093385
 H                     0.41208515     5.61833599    -0.50845079
 H                     1.69536839     4.83481692    -1.43455352
 H                    -2.07657866     4.75256846    -0.79163203
 H                    -1.83813597     3.24071560    -1.68180835
 H                    -2.97342032     3.30331593    -0.32375034
 H                    -1.02470885     4.99189472     1.56875814
 H                    -2.19311506     3.72465979     1.95738774
 H                    -0.49135300     3.51834704     2.39694651
 C                     1.03122149    -1.70485679    -0.12866083
 C                    -0.13967175    -2.44116339     0.49752422
 N                    -0.26799656    -3.79163452    -0.02452952
 C                     0.77656203    -4.68766079     0.48839869
 C                     1.59640685    -5.35678285    -0.60198108
 C                    -1.88804075    -5.59523062    -0.58336306
 C                    -1.61229256    -4.31788137     0.18706664
 H                     0.89016560    -1.59561698    -1.20473703
 H                     1.97394555    -2.22877375     0.03016357
 H                    -1.05473205    -1.89205096     0.26280021
 H                    -0.03487855    -2.42634437     1.59505255
 H                    -1.80189778    -4.49165261     1.26087709
 H                    -2.31907472    -3.55007418    -0.13553853
 H                    -1.74874759    -5.44354193    -1.65563847
 H                    -2.91857773    -5.91325369    -0.41425800
 H                    -1.23633745    -6.41184441    -0.26804565
 H                     0.32192799    -5.45128929     1.13093059
 H                     1.44725737    -4.11760674     1.13800760
 H                     0.96678318    -5.96245887    -1.25555132
 H                     2.35745551    -6.00726060    -0.16390466
 H                     2.09978108    -4.60969175    -1.21885307
