14

Si       0.00000000      -0.00000000      -0.48118424
C       1.80080658      -0.00000000       0.11251406
C      -0.90040329       1.55954425       0.11251406
C      -0.90040329      -1.55954425       0.11251406
H       0.00000000      -0.00000000      -1.97818895
H       2.33733893      -0.88641039      -0.25125148
H       2.33733893       0.88641039      -0.25125148
H       1.86071480      -0.00000000       1.20977997
H      -0.40101555       2.46740008      -0.25125148
H      -1.93632337       1.58098969      -0.25125148
H      -0.93035740       1.61142629       1.20977997
H      -1.93632337      -1.58098969      -0.25125148
H      -0.40101555      -2.46740008      -0.25125148
H      -0.93035740      -1.61142629       1.20977997
