154

O          4.76631       -1.61055       -3.53232
H         -1.92245        5.26638       -1.04635
H          4.67731       -7.30074        1.03558
Si        -2.35522        8.29114        1.98732
Si         0.45431        7.04874       -1.14262
Si         3.78198        4.69925       -4.35503
H          1.41452       -6.02709       -1.08196
Si        -3.68351        4.50330        0.31935
Si         0.35944        2.38242       -1.51290
Si         4.10571       -0.42217       -2.57922
H         -1.85435       -3.43686       -3.65294
Si        -4.26524        0.30741       -2.44711
Si        -0.50274       -2.43497       -1.55827
Si         3.53557       -4.58764        0.10347
H         -1.87981        7.23893       -0.43760
Si        -3.73450       -4.79430       -4.21416
Si        -0.76165       -7.09384       -1.24587
Si         2.91891       -8.08835        2.40037
O         -2.60589        0.29464       -2.75427
O          1.62996        4.86953        4.55256
O          5.96038        4.50016        1.07503
O         -1.24061       -6.62165       -2.75866
O          1.11364       -2.62089       -2.03127
O         -2.02728        1.65780        3.73626
O          2.71700        1.00704        3.02700
O          1.70153       -8.15991        1.28387
O          4.53470       -5.92727       -0.11971
O         -4.73950       -2.12445        1.63424
O         -0.59240       -2.44476        3.66788
H         -2.04887        1.11373       -2.59631
H         -4.09500       -5.10001       -6.54186
O          2.38935       -4.61889       -1.09553
O          1.39444        2.11096       -2.80776
O         -3.41349        4.96047        4.46281
O         -4.79346       -1.22028       -2.67938
Si        -4.89220       -3.43775        0.64667
Si        -0.66404       -4.09437        3.30596
O          1.20878        4.47257        1.90041
O          5.21960        2.98573       -1.05666
H          4.87734       -6.21059       -0.98345
H         -3.76563        7.27382        0.29066
Si        -2.40206        5.34340        3.21406
O         -4.70523       -3.83157       -3.29558
O         -1.64205       -6.21114       -0.11948
O         -2.13892       -4.37637       -3.85160
Si         1.74100        4.62669        0.37129
O         -1.20540       -4.32177        1.79041
H         -1.35578       -5.71382       -3.17138
H          4.05414       -4.28327        4.70198
Si         5.47748        2.52065       -2.61019
O         -3.40929       -4.14353        0.39262
O          0.86493       -6.83326       -0.86716
O          1.47059        6.15718       -0.20691
O          2.88421       -4.75301        1.59553
O         -6.41078        1.30742        0.99012
O          4.43068       -7.98534        1.70078
O          4.75675        3.58630       -3.63534
H         -3.69020        9.63244        3.46117
O         -1.20002        0.54203        1.46473
H          4.48354       -1.94964       -4.39246
H         -1.91021       -1.11382       -2.94742
O         -3.83174       -6.42354       -3.91408
O          3.84660       -1.01836        1.60340
H         -6.09300       -4.86761        2.14188
O         -4.56243        3.13910        0.29782
O         -1.05981       -8.71105       -1.09392
H         -1.73334       -4.92817        5.29346
O          2.85006       -9.35936        3.45383
H          7.65640        2.19826       -3.57944
H          7.17050       -1.69498        0.49510
H         -7.78458       -3.17970       -3.01331
H          1.77141        5.78711        4.81970
H          6.49923        5.20337        0.68989
O         -2.95762        4.77794        1.75962
O          0.87534        3.71530       -0.69142
H         -1.08503        1.96243        3.86666
H          3.39767        1.60087        2.59861
O          3.27471       -4.05509        4.17103
O          0.87745       -4.65586        3.39520
O         -4.18459       -4.49407       -5.79231
O         -1.15068        6.69247       -0.95403
H         -5.57301        5.83781       -0.28670
O          4.78869        1.04944       -2.86543
O          0.56266        2.53495        3.69531
O          4.63795        2.21324        1.52440
O          2.28341        4.51892       -3.62461
H         -4.02166       -1.74530        2.21549
O         -2.74879       -0.99211        3.03367
O          2.11794       -1.64871        3.66861
H          1.75424        2.92305       -3.27908
O         -0.89010        4.76582        3.47596
O         -5.99303       -4.53358        1.24020
O         -1.71963       -4.84739        4.33101
O         -4.65932        5.86808        0.04103
O          3.32385        4.20555        0.34487
H          0.29524       -2.00615        3.77300
O         -5.43293       -3.01227       -0.84327
O         -1.23256        2.51990       -1.98942
H          1.59439       -1.84866       -2.45659
H         -3.52733        4.08049        4.85829
O          7.11810        2.48847       -2.83167
H          1.45132       -7.68030        0.44227
O         -4.48013        0.79812       -0.89278
O         -5.04660        1.39228       -3.43566
H         -6.82163        0.49170        1.31608
Si        -5.51463       -2.68661       -2.44701
O         -0.54988       -1.26390       -0.41357
O          0.52436        1.10437       -0.51246
O         -3.79217        1.06216        1.72024
Si        -1.86401       -4.64832        0.32473
H          1.74941        5.28375       -3.25954
H          2.63640       -2.42739        4.01767
H          1.34450        1.91578        3.60101
Si         2.42266       -5.10144        3.14332
O         -1.00894       -3.81472       -0.84384
O         -3.38762        9.44505        2.56261
O          2.45201       -0.35470       -2.85187
H          1.90651       -3.82926       -1.53679
O          4.40751       -3.18922        0.11482
H         -5.58342        1.22436       -4.22257
H          0.48750        7.07034       -3.51683
Si        -4.83616        1.51860        0.53780
H         -1.84997        3.24968       -1.62850
H          3.52972        3.69397       -6.54804
O         -0.82791        8.83222        1.69654
Si        -0.01641       -0.04665        0.52377
O          1.22387       -0.54620        1.46155
O         -2.89734        7.74195        0.47040
O          0.61201        8.67306       -0.73237
Si         4.77239       -1.60610        0.37943
H          1.97004        0.53047       -2.91855
O         -7.08262       -2.51611       -2.96629
O         -2.50661        4.45561       -0.88457
O          0.90428        6.66638       -2.73567
O          6.34115       -1.34865        0.85149
O         -2.34864        6.98491        3.00802
O          4.29253        6.25978       -4.11681
O          3.74610        4.45864       -5.99864
Si         0.63652        4.17727        3.42626
Si        -2.45997        0.58584        2.54437
H         -0.31979        9.00005        0.87449
H          1.41188        9.22019       -0.79163
Si         4.80201        3.50538        0.44424
Si         2.51577       -0.56741        2.46808
H          4.83177        6.81672       -4.69521
O          2.72251       -6.69411        3.34841
O         -1.44021       -2.01765       -2.86563
H          5.36698        1.59064        1.70473
O          4.44394       -0.81700       -1.02315
H         -2.00940       -1.55936        3.41120
H          2.83001      -10.30578        3.26493
H         -0.79614       -9.30383       -0.37548
H         -3.13160       -6.93899       -3.45741
Bi        -0.84815        0.59373       -5.93264
