64
Au64 optimized with Band in AMS.
Au       0.01378133999391       0.04017611951633       0.24486452584985
Au       1.44993311747077       0.85939208208422      -2.22479297975664
Au      -1.43270472254987      -0.81710954209088      -4.59090557197920
Au       0.00000000000000       0.00000000000000      -7.06076233700000
Au       1.45373751098879       2.53749517139399       0.24297865204891
Au       2.89048056275008       3.35519524280594      -2.22598050953671
Au       0.00617285971905       1.67927514426708      -4.58938766913522
Au       1.44127207700000       2.49635646400000      -7.06076233700000
Au      -2.87057889225192      -4.95214176331915       0.24208890332467
Au      -1.43287824435464      -4.13389232760431      -2.22514207816088
Au       1.44585352314252       4.17565133145591      -4.58962500178184
Au      -2.88254415400000      -4.99271292800000      -7.06076233700000
Au      -1.42958323683061      -2.45575088861188       0.24318041002002
Au       0.00882069196465      -1.63735935229616      -2.22407832253558
Au      -2.87655516078835      -3.31663955699815      -4.59096280167471
Au      -1.44127207700000      -2.49635646400000      -7.06076233700000
Au       2.89587926542489       0.04088648050998       0.24285528257621
Au       4.33339889251157       0.85880341919015      -2.22631771163259
Au       1.44751858756558      -0.81712905829489      -4.58803547470037
Au       2.88254415300000       0.00000000000000      -7.06076233700000
Au       4.33630418481444       2.53731084202197       0.24267219658014
Au       5.77375393436056       3.35429262165798      -2.22535742402301
Au       2.88868896823548       1.67843214643304      -4.58957987607479
Au       4.32381623000000       2.49635646400000      -7.06076233700000
Au       0.01238261297639      -4.95233359192986       0.24357072391710
Au       1.44920441072581      -4.13379170627111      -2.22365954086105
Au       4.32961390803556       4.17371889133020      -4.58952223614011
Au      -0.00000000100000      -4.99271292800000      -7.06076233700000
Au       1.45384252418799      -2.45599088334224       0.24479936795103
Au       2.89162272615752      -1.63725303840013      -2.22469658979919
Au       0.00592924608868      -3.31369575305148      -4.58897570325038
Au       1.44127207600000      -2.49635646400000      -7.06076233700000
Au      -5.75198733398811       0.04089372851829       0.24197016829260
Au      -4.31428484242938       0.85802788930826      -2.22707344964168
Au       4.32948837238212      -0.81788263886072      -4.59049886173110
Au      -5.76508830600000       0.00000000000000      -7.06076233700000
Au      -4.31074954630268       2.53736188339021       0.24264689770753
Au      -2.87420357490997       3.35530233239730      -2.22496525272699
Au       5.77140675169727       1.67660560474794      -4.58984494788845
Au      -4.32381622900000       2.49635646400000      -7.06076233700000
Au      -8.63480001459042      -4.95201432778237       0.24388424528664
Au      -7.19801965230105      -4.13398440213040      -2.22439676001710
Au       7.21152194354529       4.17423529882750      -4.58870829641460
Au      -8.64763246000000      -4.99271292800000      -7.06076233700000
Au      -7.19349852166074      -2.45562920400453       0.24367135887862
Au      -5.75582351261759      -1.63789726141646      -2.22590418555450
Au       2.88633041848795      -3.31461383498094      -4.58897746186553
Au      -7.20636038300000      -2.49635646400000      -7.06076233700000
Au      -2.86888271322059       0.04051162421630       0.24220483024422
Au      -1.43160931230029       0.85963620410138      -2.22468094173143
Au      -4.31613942293124      -0.82024912345548      -4.59218821896273
Au      -2.88254415300000       0.00000000000000      -7.06076233700000
Au      -1.42787207719529       2.53738771931267       0.24303252074570
Au       0.00790028101018       3.35548624244420      -2.22542985621303
Au      -2.87688103088805       1.67806931710505      -4.58984413146054
Au      -1.44127207600000       2.49635646400000      -7.06076233700000
Au      -5.75240152591214      -4.95188275716243       0.24331500698638
Au      -4.31548679488816      -4.13450522479877      -2.22579118386052
Au      -1.43572464649653       4.17496402216978      -4.58910508421986
Au      -5.76508830700000      -4.99271292800000      -7.06076233700000
Au      -4.31077944616743      -2.45588129762070       0.24169893362716
Au      -2.87309913731097      -1.63723479415220      -2.22987847110515
Au      -5.76235065783517      -3.31354644532600      -4.58983639313865
Au      -4.32381623000000      -2.49635646400000      -7.06076233700000
VEC1      11.53017661000000       0.00000000000000       0.00000000000000
VEC2       5.76508830800000       9.98542585600000       0.00000000000000
