9
XYZ file
Hg    0.000000    0.000000    0.000000
 C    0.000000    0.000134    7.456091
 C   -1.227884    2.126891    7.456091
 C    2.456000    0.000000    7.462689
 C    1.227883    2.126891    7.456091
 C    1.227929    0.709027    7.459969
 C   -0.000000    2.835862    7.459969
 C    3.684071    0.709027    7.459969
 C    2.456000    2.835944    7.450930
