13
XYZ file generated by Avogadro.
C     29.0196000000   18.0285000000    0.0000000000
Cr    30.1047000000   19.6069000000    0.0000000000
C     31.1898000000   21.1853000000    0.0000000000
C     30.1047000000   19.6069000000    1.9154000000
C     30.1047000000   19.6069000000   -1.9154000000
C     28.5263000000   20.6920000000    0.0000000000
C     31.6831000000   18.5218000000    0.0000000000
O     28.3683000000   17.0811000000    0.0000000000
O     31.8412000000   22.1326000000    0.0000000000
O     30.1047000000   19.6069000000    3.0650000000
O     30.1047000000   19.6069000000   -3.0650000000
O     27.5790000000   21.3434000000    0.0000000000
O     32.6304000000   17.8705000000    0.0000000000
