72
XYZ file generated by Avogadro.
O     -6.5564880000   -0.7081400000   -1.9886990000
C      1.2187120000    1.3206900000    0.1405350000
C      2.4728250000    0.4274470000    0.3853660000
C      0.2042490000    0.2489510000   -0.3728340000
C      1.8869580000   -0.8880300000    0.9710700000
C      0.3902260000   -0.9297540000    0.5941790000
C      1.4003120000    2.3970810000   -0.9458470000
C      3.5707060000    1.0143760000    1.2878120000
C     -1.1557870000    0.8375060000   -0.5421940000
C      0.7318140000    1.9709680000    1.4411950000
C      0.2058050000    2.4622570000   -1.9156260000
C     -1.1406360000    2.1706840000   -1.2342240000
C      4.7151930000   -0.0010480000    1.5090800000
C      4.1383440000    2.3159360000    0.7077060000
C     -2.2760880000    0.2176900000   -0.1371860000
C      5.3822790000   -0.4599310000    0.2064840000
C      6.5542960000   -1.4036340000    0.5010700000
C     -3.6181340000    0.7355130000   -0.3167650000
C      7.1997030000   -1.9918860000   -0.7693790000
C     -4.7168300000    0.1582950000    0.2003060000
C     -6.0918210000    0.6886510000   -0.0707990000
C      7.7501880000   -0.8915150000   -1.6840480000
C      6.2127360000   -2.8764260000   -1.5407700000
C     -4.7090950000   -1.0526950000    1.0316060000
C     -6.9777390000   -0.4164820000   -0.6762420000
C     -5.5409900000   -2.1729350000    0.4778360000
C     -6.9671000000   -1.6924970000    0.1806320000
C     -4.0366280000   -1.1449750000    2.1812820000
H      2.9249990000    0.2040080000   -0.6092420000
H      0.5396140000   -0.0941310000   -1.3900800000
H      2.4254640000   -1.7603680000    0.5714350000
H      2.0074060000   -0.9222650000    2.0650390000
H      0.1071430000   -1.8864040000    0.1317870000
H     -0.2439000000   -0.8165080000    1.4897190000
H      2.3242370000    2.2084560000   -1.5226070000
H      1.5452220000    3.3874800000   -0.4762040000
H      3.1279500000    1.2398830000    2.2897090000
H     -0.2297900000    2.4766680000    1.2984560000
H      0.5898720000    1.2259920000    2.2320470000
H      1.4445210000    2.7146720000    1.8110850000
H      0.3580010000    1.7431200000   -2.7435040000
H      0.1717100000    3.4602710000   -2.3905190000
H     -1.3669380000    2.9690610000   -0.4966010000
H     -1.9499960000    2.2225940000   -1.9915230000
H      4.3291130000   -0.8806030000    2.0570680000
H      5.4737320000    0.4535610000    2.1742410000
H      3.3982420000    3.1222180000    0.7383730000
H      5.0131740000    2.6532270000    1.2739990000
H      4.4493820000    2.1911300000   -0.3346290000
H     -2.2132480000   -0.7542820000    0.3598600000
H      5.7380340000    0.4159470000   -0.3666990000
H      4.6424890000   -0.9696510000   -0.4388500000
H      6.2105300000   -2.2330540000    1.1478910000
H      7.3249850000   -0.8651560000    1.0842680000
H     -3.7115240000    1.6356610000   -0.9287490000
H      8.0572050000   -2.6324170000   -0.4409380000
H     -6.0672540000    1.5538230000   -0.7631770000
H     -6.5441160000    1.0641400000    0.8689430000
H      6.9470840000   -0.2754520000   -2.1023090000
H      8.3046670000   -1.3196260000   -2.5257830000
H      8.4293040000   -0.2255680000   -1.1419330000
H      5.3941400000   -2.2889020000   -1.9702380000
H      6.7107250000   -3.3943000000   -2.3670730000
H      5.7676270000   -3.6370950000   -0.8912220000
H     -8.0183850000   -0.0539630000   -0.8443920000
H     -5.0672070000   -2.5603290000   -0.4488440000
H     -5.5718570000   -3.0352590000    1.1722450000
H     -7.5275360000   -2.4875890000   -0.3481510000
H     -7.5072180000   -1.5059350000    1.1268030000
H     -4.0347870000   -2.0205900000    2.8074200000
H     -3.4392290000   -0.3398390000    2.5816530000
H     -5.6060220000   -0.9420010000   -2.0086000000
