1
Ts optimized with Band in AMS.
 Ts       0.00000000000000       0.00000000000000       0.00000000000000
VEC1      -2.27595381874535       2.27595381874534       2.27595381874534
VEC2       2.27595381874535      -2.27595381874534       2.27595381874535
VEC3       2.27595381874535       2.27595381874534      -2.27595381874535
