   155
 geometry
 O                     0.74322259     0.27281957    -3.27539746
 H                    -2.56761633     4.66530351    -0.99508014
 H                     7.00917390    -5.43558099     1.05154823
 Si                   -1.49247286     6.86301320     2.29657804
 Si                   -1.12912144     4.21237721     0.10361033
 Si                    0.36948339     5.19555486    -2.59052748
 H                     3.00870994    -6.52039022    -1.12146347
 Si                   -3.82165323     3.64690536     0.62567160
 Si                   -0.63497047     1.43957865    -1.10046749
 Si                    1.70735277     0.86431058    -2.30125130
 H                    -1.21272362    -4.26937882    -3.76672154
 Si                   -4.49350852    -0.84161654    -1.96029150
 Si                   -0.23712694    -2.48799475    -1.58263403
 Si                    3.71923866    -3.87397878    -0.64015672
 H                    -1.41193497     2.37965359     1.31001567
 Si                   -2.98250844    -5.86561275    -3.97608213
 Si                    0.89414473    -7.69748692    -0.77718819
 Si                    5.72130941    -6.58132689     2.69390852
 O                    -2.86727572    -0.39259133    -2.38146896
 O                     2.03543603     3.89827834     4.63469806
 O                     4.37907835     4.84399068    -0.44428714
 O                     0.37721854    -7.76983916    -2.35990070
 O                     1.18529463    -1.72552378    -2.03408038
 O                    -1.51147094     0.98153026     3.76936053
 O                     2.11241028     1.97290217     0.82411323
 O                     4.63243153    -7.33113519     1.67194725
 O                     4.58678915    -4.81835963    -1.73681298
 O                    -3.94220119    -3.34125071     1.93007664
 O                     0.46207849    -2.15880122     3.15996597
 H                    -2.50722025     0.50584935    -2.31004605
 H                    -3.44946336    -6.46856548    -6.32269310
 O                     2.16712512    -4.52642578    -0.57999291
 O                    -0.64402505     1.64721806    -2.67858966
 O                    -2.93940683     3.73075342     4.78898310
 O                    -4.73506238    -2.46421919    -2.18622187
 Si                   -3.84993270    -4.66727788     0.95642835
 Si                    0.75092560    -3.80733448     3.00355919
 O                     1.13203529     3.39952068     2.25224770
 O                     3.10110128     3.54888148    -1.98360020
 H                     4.30453556    -5.08725506    -2.61627044
 H                    -3.74153663     6.55493683     1.71487459
 Si                   -2.03778172     4.08630401     3.45334919
 O                    -3.98113595    -5.00670138    -2.96492281
 O                    -0.05029066    -6.62471022     0.07102603
 O                    -1.40595973    -5.22144939    -3.87395126
 Si                    1.18515974     3.64354189     1.03549141
 O                     0.05712183    -4.47758663     1.68127821
 H                     0.21642823    -7.15482229    -3.08782357
 H                     5.62938565    -2.34792570     3.57281361
 Si                    2.36927812     3.42435843    -3.23808123
 O                    -2.27593390    -5.04938876     0.53689574
 O                     2.49425422    -7.17195175    -0.63908527
 O                     0.28085403     4.79085908     0.68564902
 O                     4.22584512    -4.03113115     0.96129347
 O                    -6.08732028     0.04974503     1.91554974
 O                     7.03131267    -5.95401962     1.84849084
 O                     1.24840831     4.23034399    -3.10337120
 H                    -1.50729536     8.69741714     3.95001632
 O                    -1.13135149    -0.01283295     1.47234904
 H                    -0.22118051     0.55654822    -3.26491147
 H                    -2.14769713    -2.13263368    -2.99395816
 O                    -2.84146284    -7.46828587    -3.50209477
 O                     3.63268152     0.24038811     0.08558142
 H                    -4.35343337    -6.32135594     2.70030861
 O                    -4.71829246     2.20088434     0.76512208
 O                     0.67598659    -9.18414746    -0.06333369
 H                     0.33438934    -4.60823397     5.27836738
 O                     6.03785441    -7.45016042     4.06714851
 H                     1.83733707     3.27474219    -5.36395811
 H                     5.98061827    -0.64741793    -2.62995294
 H                    -7.21217977    -5.21867762    -2.43293785
 H                     2.18850020     4.81700750     4.87720698
 H                     4.47571557     5.72324065    -0.79612113
 O                    -2.79555955     3.59545862     1.95131010
 O                     0.59146940     2.69523733     0.19540170
 H                    -0.62332229     1.34001848     3.79118165
 H                     2.42722305     2.19945345    -0.06108158
 O                     4.76349838    -2.45246982     3.14695740
 O                     2.42049601    -3.79423913     2.88408465
 O                    -3.50216646    -5.89617983    -5.55249252
 O                    -1.03454557     2.76484184     0.58419327
 H                    -5.88061042     4.81969838     0.51271409
 O                     2.08158559     2.14814459    -2.73493397
 O                     1.09564958     1.53975742     3.87394761
 O                     3.55863287     2.31692589    -0.22673112
 O                     0.87653727     5.39554599    -1.19754029
 H                    -3.35032189    -2.73745679     2.43318123
 O                    -1.97079219    -1.57492082     3.31583921
 O                     2.86933852    -0.18212815     2.71920439
 H                    -0.57340802     2.41556221    -3.19050580
 O                    -0.49534296     3.59183487     3.52117066
 O                    -4.47081188    -5.97863867     1.80870056
 O                     0.19563077    -4.65042465     4.32683673
 O                    -4.93157215     4.89449233     0.67174503
 O                     2.32453119     3.78546703     0.14563781
 H                     1.18029431    -1.50734013     3.05147236
 O                    -4.68975337    -4.43503819    -0.46291164
 O                    -1.98720951     1.67114766    -0.91595238
 H                     1.34951853    -0.79810940    -2.34000973
 H                    -3.13523910     2.88092197     5.19645219
 O                     2.41728821     3.52937730    -4.67841518
 H                     4.20805686    -7.27062207     0.80128554
 O                    -4.48621128    -0.28464885    -0.40110244
 O                    -5.62954618    -0.04313572    -2.87079347
 H                    -6.28364031    -0.77311000     2.37938904
 Si                   -5.06597193    -4.12886630    -2.05435769
 O                    -0.65802375    -1.74119589    -0.24799112
 O                    -0.17736312     0.44553437    -0.48579635
 O                    -3.39320473     0.25916593     1.86318489
 Si                   -0.64260662    -5.13329603     0.31910282
 H                     0.94910619     6.26883614    -0.88210876
 H                     3.72030830    -0.56613400     3.05318570
 H                     1.81336606     0.91672200     3.71738241
 Si                    4.05412165    -3.90956799     2.61533797
 O                    -0.17814472    -4.06628612    -0.91286930
 O                    -1.66572443     8.34714302     3.05694800
 O                     1.21994291     1.41790139    -1.17922285
 H                     1.21125391    -4.25952735    -0.47881935
 O                     3.81639355    -2.25667745    -1.04486917
 H                    -6.24800591    -0.27604048    -3.57157638
 H                    -2.37753525     3.55440092    -1.66498587
 Si                   -4.77538825     0.50284973     1.00860665
 H                    -2.52191361     2.20888983    -0.36970308
 H                    -1.34541299     3.56547255    -2.94108827
 O                    -0.00263725     6.63977441     1.45760878
 Si                   -0.15062728    -0.48024180     0.47130289
 O                     1.27142150    -0.36159176     0.88127871
 O                    -2.79765563     6.59714652     1.42851704
 O                    -1.96149588     5.15112383     0.34345618
 Si                    3.95133817    -0.64394264    -1.28220686
 H                     1.60964024     2.20749921    -0.92745463
 O                    -6.66636872    -4.42211201    -2.41490233
 O                    -3.03954276     3.89385454    -0.84142814
 O                    -1.57913506     3.90016068    -1.39268684
 O                     5.45547947    -0.31584009    -1.89164239
 O                    -1.59327678     5.65962013     3.35170597
 O                     0.35992558     6.66447434    -2.87469681
 O                    -0.86268202     4.43920597    -3.00072159
 Si                    1.02091452     3.14109364     3.60691498
 Si                   -2.07290542    -0.02384133     2.72809161
 H                     0.34389750     6.62075433     0.57182650
 H                    -2.02390056     6.00853411    -0.00443551
 Si                    3.44309399     3.70671979    -0.63266061
 Si                    2.54156931     0.45514088     1.22959204
 H                    -0.14509800     7.21798047    -3.45003837
 O                     4.90046634    -5.17730827     3.19647823
 O                    -1.30365628    -2.59565396    -2.83661485
 H                     4.17287975     1.67148548    -0.54260420
 O                     2.75804660     0.07082950    -1.82544466
 H                    -1.13914241    -1.97720746     3.64904403
 H                     6.38758565    -8.32994469     4.25779128
 H                     0.93599553    -9.55818173     0.78154038
 H                    -2.10167036    -7.88086625    -3.05423351
 At                    0.42903386     3.34614483    -1.27628067
 H                    -1.42850375     2.65962203    -2.14392318
