37
C10H22NO3P optimized with ADF in AMS.
O        3.34128327780974       0.24784192944874       0.16506775486527
P        2.22248235274140      -0.18735270567754      -0.95023366941681
O        1.16424831478867       1.06443171487114      -1.01186374817577
O        1.27353207856602      -1.07832670346873       0.05057493888891
C        0.16116451740078       1.01196000132327       0.04207787176826
C       -0.05385038082999      -0.51642615339815       0.23195584855276
C        0.71315393144018       1.70295230664308       1.28001983485068
C       -1.06200662416804       1.74800610309653      -0.46514073861602
C       -0.95627824608548      -1.12751126684880      -0.82933874600790
C       -0.52931530493503      -0.90381522754302       1.61718911766965
H       -0.05806743824654       1.79050020220200       2.04731897917589
H        1.56891054581886       1.17058243200180       1.69299453244316
H        1.03522870414619       2.70866097647343       1.00526658656426
H       -1.38173143449803       1.37456817791456      -1.43692464855226
H       -1.88771560576957       1.64077196372609       0.24193460057675
H       -0.83609162209169       2.81130933284456      -0.56009438115150
H       -1.99559593520743      -0.82971830873716      -0.68317994078770
H       -0.64693408261342      -0.83385952950803      -1.83402037783199
H       -0.89835709766755      -2.21437804449564      -0.75547862787780
H       -1.49330878638649      -0.43599396035033       1.82954888895254
H       -0.66025502541481      -1.98565953742675       1.67123275283626
H        0.18336774866788      -0.60275855330569       2.38349871801454
C        4.64610034237523       0.59801611623771      -0.30711094488569
C        5.66997370513121      -0.05971062208146       0.59725239739776
N        7.03272665601787       0.30641411722156       0.24980376305296
C        7.35845406421042       1.65341696196869       0.68603957443502
H        7.76525662205254      -1.64446556864734       0.45626315474352
H        8.37811058384098       1.89884873762249       0.38398717541159
C        7.97500151530046      -0.63817755977061       0.82278892224711
H        4.78611362830260       0.26152625018712      -1.33982486468751
H        4.73358820302810       1.68647993949810      -0.29105376815247
H        5.56510207134202      -1.14222958590814       0.49277086335355
H        5.43567819975995       0.18779918718508       1.64745077476093
H        7.93624419197222      -0.65625021035025       1.92554636758743
H        7.28779425424782       1.76280044345403       1.78209084357813
H        6.69191342155391       2.38379374697655       0.22714813697286
H        8.99066366422952      -0.37010370584291       0.52562441482401
