   154
 geometry
 O                     5.87193118    -0.51547811     1.46899122
 H                    -1.95611700     5.47370889    -1.74717812
 H                     2.68998345   -10.34085955     4.70643767
 Si                   -5.14341640     7.98848088     0.27557316
 Si                   -0.29570465     7.49584667     0.05455803
 Si                    4.73374160     5.01360808    -0.08541672
 H                     2.59792460    -6.50110119     0.33290577
 Si                   -4.12186746     4.25632140    -1.99598480
 Si                    0.40679845     2.51963800    -0.35464112
 Si                    4.37825071     0.09336385     1.81271609
 H                     1.52758798    -3.40054795    -3.79593270
 Si                   -1.81716249     0.11681901    -4.53526942
 Si                    0.77638038    -2.63148520    -1.05985046
 Si                    2.77450523    -4.88603989     3.05151158
 H                    -2.62885429     7.51466088    -1.01131975
 Si                    0.63725963    -4.47667329    -5.87935489
 Si                    1.23483719    -7.33204932    -1.64002871
 Si                    0.79709636    -9.36824720     3.20420135
 O                    -0.45558570     0.30656673    -3.58248823
 O                    -3.35382846     4.91737683     4.72837795
 O                     2.39641838     5.78360908     5.17423687
 O                     1.77930301    -6.47616160    -2.93735871
 O                     2.31624101    -2.78131357    -0.43472946
 O                    -4.57229082     0.76751522     1.52940762
 O                    -0.35404938     0.95446764     4.57224814
 O                     1.37695524    -8.92293379     1.73206483
 O                     4.07484669    -5.72781559     3.61331166
 O                    -4.46332249    -3.34265218    -1.88963706
 O                    -2.48967587    -3.50380115     2.50359044
 H                    -0.05459548     0.93457476    -2.97489277
 H                     1.75827589    -3.53289089    -8.02675209
 O                     2.78064073    -4.81228672     1.39077065
 O                     2.02494870     2.43689985    -0.72355989
 O                    -6.78616355     4.08843727     1.24438979
 O                    -2.00530839    -1.44754712    -5.02241862
 Si                   -3.69371346    -4.46477347    -2.82182505
 Si                   -2.36561368    -5.12877901     2.18090837
 O                    -1.63720643     4.54148515     2.65794215
 O                     3.48181850     3.82123642     3.63620679
 H                     4.81613396    -6.21814933     3.94536747
 H                    -4.58791614     7.08648040    -2.02315464
 Si                   -5.34784797     4.84722777     1.02247589
 O                    -0.87251227    -3.80496653    -5.68987934
 O                    -0.22658205    -6.61933091    -1.22997566
 O                     1.49228944    -4.04172669    -4.52058034
 Si                   -0.16526268     4.81755070     1.95645643
 O                    -1.79505093    -5.31360528     0.63390593
 H                     1.90961063    -5.76415138    -3.57410476
 H                    -0.35925760    -5.84240118     6.66354505
 Si                    4.75518893     3.25935208     2.72873237
 O                    -2.36953142    -4.99555812    -1.96361631
 O                     2.22080348    -7.11069784    -0.31573974
 O                    -0.16717726     6.27846942     1.17127522
 O                     1.38108461    -5.59750561     3.58517032
 O                    -5.81052959     0.60484356    -3.39453243
 O                     2.00731956    -9.97746039     4.15794667
 O                     4.77471274     4.12285917     1.31259107
 H                    -7.29690314     9.41242000     0.03070506
 O                    -2.36538307    -0.34946477     0.56731302
 H                     6.72915941    -0.85845190     1.25019242
 H                     0.51684643    -1.32879122    -3.18231949
 O                     0.53766215    -6.11715466    -5.97586488
 O                     1.36886374    -1.12585643     4.28642911
 H                    -5.24728701    -6.45741692    -3.41812125
 O                    -4.31849043     2.69019042    -2.45724453
 O                     1.06326208    -8.93655320    -1.95938889
 H                    -4.69359108    -6.26113674     2.39267202
 O                    -0.40510276   -10.49533547     3.08348824
 H                     6.99931664     3.52468106     4.00893034
 H                     4.20670992    -1.63380103     6.37898122
 H                    -3.72441051    -3.13993716    -7.63261877
 H                    -3.50782034     5.41201550     5.52320120
 H                     2.57925681     6.58569254     5.64730597
 O                    -4.67884750     4.46844791    -0.45347674
 O                     0.11727170     3.67804574     0.78936472
 H                    -4.58504091     1.38486488     2.25879562
 H                    -0.09476772     1.85752101     4.76700729
 O                    -0.23903420    -5.99493393     5.73480174
 O                    -1.26737423    -5.78172046     3.23280975
 O                     1.34227124    -3.86618648    -7.24225789
 O                    -1.70387071     7.30312857    -0.80217122
 H                    -5.49641830     5.54258932    -3.75868564
 O                     4.51879005     1.66493199     2.33835144
 O                    -3.02930326     2.46816590     3.62084346
 O                     1.49328983     3.24513786     5.37757559
 O                     3.26127645     5.73780449    -0.24958759
 H                    -4.74826213    -2.72879992    -1.21130902
 O                    -4.62267044    -1.77906581     0.51299873
 O                    -1.27743187    -1.61155802     4.73301985
 H                     2.88933562     2.80740147    -0.89369636
 O                    -4.28278865     4.46177649     2.22772236
 O                    -4.68318935    -5.73030737    -3.19251263
 O                    -3.84473859    -5.84065278     2.33876954
 O                    -4.97204653     5.28210495    -3.00817011
 O                     0.99680094     4.68319929     3.12540258
 H                    -2.31019676    -2.61923698     2.81018699
 O                    -3.12510890    -3.74217282    -4.20462916
 O                    -0.47219498     2.86477881    -1.71377347
 H                     3.07801312    -2.24118882    -0.20894049
 H                    -7.59176037     3.60486749     1.37930722
 O                     6.17149557     3.43522301     3.55446473
 H                     1.80037183    -8.55995975     0.94625217
 O                    -3.11008712     0.57330409    -3.59695955
 O                    -1.70486524     1.10980008    -5.84886864
 H                    -6.59439936     0.23760652    -3.78335347
 Si                   -2.31233878    -3.02732315    -5.45617082
 O                    -0.00612520    -1.50088360    -0.14712555
 O                    -0.09641196     1.07849796     0.26156433
 O                    -4.29250105     0.38194103    -1.15049256
 Si                   -1.14996705    -5.30151203    -0.89244295
 H                     2.43441915     6.22156053    -0.34036913
 H                    -1.80555649    -2.25331586     5.19750225
 H                    -2.60410225     1.66181295     3.91233883
 Si                    0.00202343    -6.34383279     4.14037702
 O                    -0.08832174    -4.01786369    -0.99772353
 O                    -6.49587401     8.90843663     0.09610310
 O                     3.42553936     0.11667536     0.45264681
 H                     2.64770828    -4.23540888     0.62017443
 O                     2.84863648    -3.31147480     3.59993872
 H                    -1.63699622     1.66502282    -6.61514623
 H                     1.56226089     7.60914047    -1.72345972
 Si                   -4.39818012     1.03661809    -2.67026167
 H                    -1.18036448     3.37783012    -2.13020967
 H                     5.08580284     3.36347975    -2.08856975
 O                    -4.01312996     8.76980473     1.18049659
 Si                   -0.73026653    -0.35849076     0.77779005
 O                    -0.43353081    -0.58118825     2.38879909
 O                    -4.47813436     7.60775358    -1.22001500
 O                    -0.27184028     8.97918426     0.78147694
 Si                    2.90388127    -1.74621061     4.13673528
 H                     2.85097806     0.59745534    -0.14507775
 O                    -3.21311876    -3.05934866    -6.83810401
 O                    -2.53041593     4.74897162    -2.02774330
 O                     1.00056804     7.38360057    -0.98755022
 O                     3.71290632    -1.66006689     5.56942211
 O                    -5.49408133     6.50148105     0.92356091
 O                     5.94676492     6.14147094    -0.07380903
 O                     4.93839081     3.95003087    -1.35365574
 Si                   -3.09467987     4.09679714     3.32104197
 Si                   -4.00972381    -0.24169862     0.35445934
 H                    -3.36572043     9.22070316     1.71007805
 H                    -0.19722651     9.82079614     1.21546077
 Si                    2.09408341     4.39790964     4.33409881
 Si                   -0.17734740    -0.60162209     4.02820232
 H                     6.65648018     6.76958014    -0.07913079
 O                     0.20873177    -7.96483626     3.89381431
 O                     0.85583928    -2.03499606    -2.61032088
 H                     1.48336838     2.61845529     6.09484567
 O                     3.64289267    -0.82596629     2.97183887
 H                    -4.60134037    -2.62383997     0.95689538
 H                    -1.10235065   -11.13445896     3.02030513
 H                     0.95504396    -9.86958496    -2.09028586
 H                     0.51907327    -7.06269486    -5.91538462
 Hg                    5.38822896     1.60890096    -4.65997812
