   154
 geometry
 O                     5.74827492    -1.33739038     0.87864548
 H                    -1.36990884     5.69344717    -1.55482264
 H                     1.41908520   -11.09478492     4.49495029
 Si                   -3.77495452     8.60885713     0.61404858
 Si                    0.59364078     7.57234374    -0.03028670
 Si                    4.82858732     4.12122646    -1.07906569
 H                     2.09175969    -6.28424442     0.40589377
 Si                   -3.69652917     4.77224050    -1.61701498
 Si                    0.56741174     2.34042332    -0.29911198
 Si                    4.46278377    -0.43477961     1.39549400
 H                     0.77261258    -3.19018816    -3.64054461
 Si                   -2.24055943     0.36013128    -4.21677838
 Si                    0.34313581    -2.55719739    -0.92888618
 Si                    2.58827723    -4.94572925     2.99429019
 H                    -1.75124242     7.75138888    -1.03664324
 Si                   -0.22763394    -4.45378371    -5.57291277
 Si                    0.67940170    -7.20110085    -1.48278041
 Si                    0.20048081    -9.37327373     2.94842284
 O                    -0.85000364     0.51079910    -3.28309422
 O                    -2.21739662     5.32729819     4.96114119
 O                     3.74653879     5.43253180     4.76687250
 O                     1.16896976    -6.28539501    -2.76935078
 O                     1.92938566    -2.70365078    -0.41739737
 O                    -4.37046529     1.56075960     1.96312514
 O                     0.21941840     1.28503525     4.46856355
 O                     1.14793650    -8.95445586     1.66111287
 O                     3.91096336    -5.89943020     3.28785617
 O                    -4.74437111    -2.82231272    -1.19047796
 O                    -2.20153909    -3.10163732     2.83533119
 H                    -0.47137746     1.21523579    -2.72068555
 H                     0.87732993    -3.87168802    -7.86730689
 O                     2.37189336    -4.74349213     1.34979167
 O                     2.07765623     1.87068299    -0.81902075
 O                    -6.09991297     5.15940625     1.89317102
 O                    -2.53681601    -1.21521568    -4.61710143
 Si                   -4.27620187    -4.05116058    -2.19958770
 Si                   -2.45496861    -4.72309436     2.58991198
 O                    -0.77327992     4.77725671     2.71225235
 O                     4.32116323     3.43948302     2.98858150
 H                     4.61419416    -6.53325212     3.40136054
 H                    -3.84972827     7.57519842    -1.71722672
 Si                   -4.55605670     5.57191682     1.48752932
 O                    -1.68699031    -3.65502277    -5.40677408
 O                    -0.80758492    -6.55286543    -1.01167477
 O                     0.71222840    -3.90851953    -4.29896702
 Si                    0.64546970     4.85783937     1.85673002
 O                    -2.05980606    -5.09464233     1.01016704
 H                     1.22621079    -5.53103890    -3.37797086
 H                    -0.23887460    -6.21883021     6.88371504
 Si                    5.35849355     2.73179729     1.89058284
 O                    -2.97530968    -4.82938247    -1.49448183
 O                     1.69776411    -6.96734940    -0.17409371
 O                     0.73013249     6.29610244     1.02047027
 O                     1.24383241    -5.62367729     3.69173767
 O                    -6.12235359     1.52964795    -2.85804919
 O                     0.96170654   -10.46528782     3.94584276
 O                     5.17850241     3.50700773     0.42633473
 H                    -5.54298091    10.51969616     0.72274165
 O                    -2.58213766    -0.04254991     0.85435275
 H                     6.44358947    -1.91111573     0.56597266
 H                    -0.06624984    -1.06323599    -2.90887053
 O                    -0.42756250    -6.09006020    -5.43287058
 O                     1.53481820    -1.06982435     4.19036168
 H                    -6.19313661    -5.76921892    -2.63404998
 O                    -4.14153561     3.25663227    -2.08802325
 O                     0.55784264    -8.81378474    -1.82763673
 H                    -4.92323442    -5.44571742     3.03831789
 O                    -1.25361873   -10.00489280     2.44217285
 H                     7.82661929     2.86230474     2.72478200
 H                     4.38287148    -1.66740102     6.26131733
 H                    -4.71474640    -2.72785590    -6.99394501
 H                    -2.25992197     5.82811097     5.77162712
 H                     4.09405687     6.19305879     5.22570332
 O                    -4.15975946     5.04102087    -0.04797317
 O                     0.67052482     3.64378872     0.72404478
 H                    -4.07110687     2.16592920     2.65023817
 H                     0.75350109     2.08468732     4.56576958
 O                    -0.20069091    -6.24127303     5.93189738
 O                    -1.42819324    -5.58694209     3.57668742
 O                     0.45911258    -4.06709054    -7.03367474
 O                    -0.83175359     7.43710697    -0.87567294
 H                    -4.98463446     6.20456070    -3.33464031
 O                     4.90257032     1.14862574     1.66974323
 O                    -2.24874973     2.83867392     3.81955062
 O                     2.53772706     3.00317343     4.99029725
 O                     3.61619196     5.23460577    -0.96737998
 H                    -4.91434513    -2.12172866    -0.55146323
 O                    -5.13245573    -0.94567092     1.08308394
 O                    -0.96683170    -1.05858248     5.28910356
 H                     2.89823600     2.15970630    -1.27506746
 O                    -3.46352833     4.95321592     2.57475640
 O                    -5.51512180    -5.12045841    -2.46825669
 O                    -4.03774800    -5.12939194     2.88360219
 O                    -4.43960222     5.92302285    -2.60028959
 O                     1.91141652     4.63084040     2.90593110
 H                    -1.87061107    -2.20882429     2.95319108
 O                    -3.74241235    -3.41839591    -3.64857408
 O                    -0.38388656     2.76811555    -1.60574312
 H                     2.62563731    -2.04061325    -0.21489091
 H                    -6.96672089     4.84516077     2.13870354
 O                     6.92249110     2.82591747     2.42355304
 H                     1.49575463    -8.39184120     0.94483378
 O                    -3.48366460     0.94579578    -3.27016440
 O                    -2.09429008     1.28769506    -5.58483564
 H                    -7.00223544     1.36681460    -3.18831244
 Si                   -3.02960110    -2.76898573    -5.00048947
 O                    -0.37982551    -1.48835098     0.12037562
 O                    -0.15562194     1.09661733     0.51339930
 O                    -4.49238528     0.98395996    -0.73143905
 Si                   -1.62876754    -5.17895496    -0.59114473
 H                     2.93599513     5.91083306    -0.86416153
 H                    -1.49776461    -1.52630683     5.92990602
 H                    -1.75292855     2.04680854     4.06077400
 Si                   -0.13472340    -6.36593025     4.27881450
 O                    -0.50998849    -3.95766556    -0.86231482
 O                    -4.90213926     9.81676515     0.65139746
 O                     3.26471146    -0.39110910     0.22358833
 H                     2.23516801    -4.09970966     0.61640780
 O                     2.81011693    -3.41217709     3.62947550
 H                    -1.99156269     1.78000450    -6.39483996
 H                     2.45309741     7.79930261    -1.82036363
 Si                   -4.58809964     1.64917935    -2.25297540
 H                    -1.01524298     3.46233094    -1.88408594
 H                     4.41404981     2.21458100    -2.77276316
 O                    -2.31689942     9.08969632     1.22123393
 Si                   -0.95893874    -0.26017357     1.04377585
 O                    -0.63479018    -0.50111702     2.66160795
 O                    -3.48847097     8.08704584    -0.97514712
 O                     0.60714940     9.01761817     0.81645250
 Si                    3.01993176    -1.82125827     4.04301958
 H                     2.71510669     0.27935998    -0.23450486
 O                    -4.10354888    -2.70980304    -6.26286754
 O                    -2.04112784     5.00754778    -1.72559709
 O                     1.88882844     7.55460279    -1.08722734
 O                     3.86833091    -1.66969404     5.45856047
 O                    -4.33162825     7.22448852     1.36314349
 O                     6.18792310     4.77013643    -1.77572112
 O                     4.32389041     2.82191478    -2.03415011
 Si                   -2.19538660     4.47801876     3.53938685
 Si                   -4.18778423     0.39941094     0.79670850
 H                    -1.37510264     9.22546623     1.36121143
 H                     0.93110085     9.81067713     1.24146781
 Si                    3.13959981     4.14586084     3.91970722
 Si                    0.03819521    -0.35007423     4.18555348
 H                     6.98877488     5.14295006    -2.13527368
 O                    -0.08671748    -7.95078050     3.79372519
 O                     0.29559977    -1.85271691    -2.44362950
 H                     2.57479239     2.37183643     5.70866384
 O                     3.82493028    -1.08299287     2.78427309
 H                    -5.56683325    -1.65323469     1.55838545
 H                    -2.09341892   -10.29879370     2.10194763
 H                     0.50870207    -9.76446818    -1.87848162
 H                    -0.43634421    -6.99921035    -5.14194605
 Hg                    3.18744316    -0.49668744    -3.54583108
