   154
 geometry
 O                     4.65418483     1.93305827     3.35485165
 H                    -1.64605992    -5.84819469     0.74166412
 H                     4.37900103     9.86955622    -3.38096671
 Si                   -1.73621175    -8.85278045    -2.39586557
 Si                    0.96272049    -7.55564562     1.00603401
 Si                    2.79142641    -3.76622369     4.64515156
 H                     1.64518860     6.16440843     0.61761796
 Si                   -3.49422910    -5.10588411    -0.78366748
 Si                    0.33234968    -2.30702060     0.92660753
 Si                    4.17997686     0.71396713     2.34441334
 H                    -1.87247626     3.14638460     3.20642389
 Si                   -4.41121978    -0.59603058     1.94761356
 Si                   -0.46983429     2.48694089     0.91829385
 Si                    3.69112076     4.63513139    -0.83338011
 H                    -1.42753575    -7.92205610     0.17106381
 Si                   -3.88735939     4.53415901     3.78321815
 Si                   -0.59340211     7.11274899     1.29699085
 Si                    2.14190145     8.53768124    -3.12939611
 O                    -2.75122480    -0.66930885     2.18373284
 O                     2.04091902    -5.47394495    -4.61660534
 O                     6.36362917    -4.29782729    -0.74844651
 O                    -0.83719079     6.24609020     2.68547131
 O                     1.02877371     2.75441228     1.61812548
 O                    -1.85423373    -2.02040246    -4.11289668
 O                     3.17270840    -0.84868293    -3.92740750
 O                     1.75594368     8.29202435    -1.54156761
 O                     4.79368209     5.83108217    -0.52738500
 O                    -4.45206352     2.40097715    -2.07325441
 O                    -0.99560530     2.68248659    -3.63847956
 H                    -2.07488245    -1.35419585     1.99672184
 H                    -4.54485799     4.60297726     6.30957927
 O                     2.51625465     4.59981856     0.34784353
 O                     1.00823529    -1.71520264     2.33020181
 O                    -2.81759672    -5.54858722    -5.00480991
 O                    -4.96626793     0.96005127     1.98903209
 Si                   -4.94209976     3.63917961    -1.08195630
 Si                   -0.87114672     4.33499402    -3.64125116
 O                     1.61119938    -4.80880904    -2.00637490
 O                     5.27214896    -2.99989488     1.40008642
 H                     5.33960878     6.59638219    -0.36617700
 H                    -3.45020935    -7.91715047    -0.74611655
 Si                   -1.95539978    -5.84649511    -3.62956535
 O                    -4.90112169     3.51151378     2.93107017
 O                    -1.63155972     6.40696078     0.16356925
 O                    -2.34907277     3.90450821     3.59015030
 Si                    2.07348127    -4.78294213    -0.41127096
 O                    -1.39763592     4.88240202    -2.15751541
 H                    -1.19233755     5.53350931     3.23835401
 H                     3.64244836     4.56777942    -5.81989254
 Si                    5.26676865    -2.35905038     2.93470357
 O                    -3.58749807     4.54683835    -0.70594409
 O                     0.95279454     6.85275096     0.71339516
 O                     1.67749321    -6.23290965     0.30803316
 O                     2.99530429     4.89107615    -2.32079103
 O                    -6.24684620    -1.99879402    -1.65080415
 O                     3.56928850     9.37455878    -3.29778505
 O                     4.10064965    -3.12858616     3.84479859
 H                    -2.82075564   -10.85853338    -3.65751619
 O                    -1.20172568    -0.19393159    -2.27873436
 H                     4.88503349     2.66360331     3.92361859
 H                    -1.97614925     0.91618926     2.22894589
 O                    -3.94481933     6.05390595     3.12844971
 O                     4.10671908     0.66473209    -1.85965673
 H                    -6.75135459     5.15095417    -2.20027234
 O                    -4.23616395    -3.63243546    -0.75403388
 O                    -0.90112531     8.72894485     1.46707562
 H                    -2.29374892     5.43628435    -5.53326974
 O                     0.93184420     9.34183799    -3.93711098
 H                     7.61095729    -2.55145266     4.06145191
 H                     7.53912249     1.38893338    -1.26457498
 H                    -8.21227514     2.28592234     2.56711167
 H                     2.54923550    -6.03136912    -5.20006287
 H                     7.11757210    -4.79187945    -1.05857378
 O                    -2.79006216    -5.35546596    -2.26533407
 O                     1.18820703    -3.60376247     0.35924943
 H                    -1.24689698    -2.68752641    -4.43903018
 H                     3.65611456    -1.50112680    -4.43312634
 O                     3.13243385     4.63252374    -5.01410799
 O                     0.71617901     4.80858847    -3.80666640
 O                    -4.32192729     4.56458365     5.38380402
 O                    -0.66609400    -7.54326388     0.66507648
 H                    -5.48178366    -6.68298101    -0.30440890
 O                     4.80383691    -0.76349339     2.78462875
 O                     1.21400073    -2.96096229    -3.93050206
 O                     4.80904526    -2.05380164    -1.07798392
 O                     2.11536808    -4.97437421     3.74643545
 H                    -4.08773757     1.68607760    -2.60188384
 O                    -3.14844609     0.42091307    -4.03831141
 O                     2.94829126     1.87968405    -3.98962082
 H                     1.24995517    -1.95575065     3.25291942
 O                    -0.47955471    -5.08524659    -3.68655283
 O                    -6.09561915     4.57634910    -1.81512629
 O                    -1.78208228     4.99314421    -4.86227902
 O                    -4.61446661    -6.33245310    -0.50565497
 O                     3.66776410    -4.36161862    -0.28312857
 H                    -1.03124889     1.73882075    -3.48605006
 O                    -5.51173073     3.02911221     0.36052786
 O                    -1.23468160    -2.80616033     1.23620233
 H                     1.66921780     2.14902354     2.05684731
 H                    -3.31506593    -5.32349592    -5.78729065
 O                     6.75219279    -2.49183477     3.65126939
 H                     1.46696578     7.93241491    -0.68111885
 O                    -4.64952260    -1.25301098     0.43016573
 O                    -5.19416829    -1.51249815     3.08705024
 H                    -7.12385220    -1.88594563    -2.00875453
 Si                   -5.69177241     2.46608818     1.91364832
 O                    -0.20884258     1.42792713    -0.33760364
 O                     0.32652372    -1.12977354    -0.23678114
 O                    -3.61737932    -1.42988245    -2.10674912
 Si                   -1.99126726     4.98918511    -0.61037730
 H                     1.79643634    -5.70269625     3.20203277
 H                     2.97266949     2.75195438    -4.40862933
 H                     1.58390954    -2.06845479    -3.94181101
 Si                    2.28390241     5.34065367    -3.75269547
 O                    -1.19252199     3.82765023     0.30012078
 O                    -2.45187826   -10.11946918    -3.18025271
 O                     2.51066555     0.56678005     2.35539023
 H                     1.94544724     4.02232999     0.91339712
 O                     4.41883113     3.13188733    -0.86892509
 H                    -5.64122982    -1.99947611     3.77430742
 H                     1.20945038    -7.75823549     3.58173046
 Si                   -4.71883018    -2.04910881    -1.02011080
 H                    -1.80906862    -3.58015857     1.06654190
 H                     1.15414312    -1.89822893     5.36577270
 O                    -0.22926668    -9.22513047    -1.83683644
 Si                    0.10447836     0.12876255    -1.30265730
 O                     1.46212141     0.37450929    -2.22354988
 O                    -2.64927267    -8.37357056    -1.04900697
 O                     1.64786239    -8.95974479     0.39706873
 Si                    4.99151457     1.57889555    -0.75262085
 H                     1.83188930    -0.14227745     2.31720497
 O                    -7.29069445     2.32064051     2.32592762
 O                    -2.30676699    -5.22298186     0.39159647
 O                     1.20421612    -7.50956842     2.65787818
 O                     6.60460605     1.46447130    -1.08907494
 O                    -1.72366061    -7.47636662    -3.34238377
 O                     3.22844912    -4.30577880     6.15273361
 O                     1.67808952    -2.51084087     4.84296740
 Si                    1.10741384    -4.57682984    -3.58077455
 Si                   -2.47916013    -0.82574242    -3.15784616
 H                     0.55878412    -9.28625612    -1.28682462
 H                     2.26633881    -9.68198151     0.29299709
 Si                    5.06237942    -3.43333890    -0.19858692
 Si                    2.90762407     0.54003223    -3.03641566
 H                     3.52901823    -4.60971832     7.00530011
 O                     2.31916884     6.99744172    -3.79043019
 O                    -1.44487747     1.72509724     2.03823034
 H                     4.60453379    -1.18042218    -1.43827922
 O                     4.65994502     1.05438063     0.78675211
 H                    -3.35483778     1.07834075    -4.70198974
 H                     0.19796874     9.77527550    -4.36296574
 H                    -1.02109093     9.67407119     1.50067643
 H                    -3.80481377     6.88372440     2.67806658
 Hg                   -0.22900087     0.71400147     5.00486034
