    42
 geometry
 P                     0.19307831    -2.30568743     0.66618443
 O                     1.48730454    -1.68095518     0.28502752
 S                    -1.48273811    -1.30615780    -0.19842070
 O                     0.00501912    -3.83842188     0.21491337
 C                    -0.11517077    -2.45497338     2.43771358
 H                     0.66494965    -3.07755843     2.87318077
 H                    -0.08583668    -1.46249310     2.88014769
 H                    -1.08966544    -2.90647496     2.60765840
 C                     0.29130328    -4.23834432    -1.15766416
 C                     0.14203912    -5.73973357    -1.25346891
 H                     1.30245045    -3.92319110    -1.40806452
 H                    -0.40879599    -3.72779374    -1.81809797
 H                     0.34869296    -6.05889968    -2.27461029
 H                     0.84059917    -6.24337196    -0.58636913
 H                    -0.87047619    -6.04710134    -0.99435487
 C                    -0.72679959     0.26097011    -0.83568799
 C                    -0.61831790     1.36651135     0.22087659
 H                    -1.38665768     0.56496334    -1.64521837
 H                     0.24174100     0.01095517    -1.25640136
 H                    -1.62129063     1.62787009     0.55023935
 H                    -0.09724698     0.97191423     1.10099166
 N                     0.03947673     2.54342699    -0.32798943
 C                     1.51251659     2.51240791    -0.27671724
 C                     2.13257237     3.05158579     1.02408020
 C                     2.13597345     3.19062105    -1.50225899
 H                     1.77468467     1.45538063    -0.33497388
 H                     1.70561657     2.56106074     1.89884244
 H                     3.20786257     2.86774027     1.03021138
 H                     1.98036021     4.12649857     1.12445428
 H                     1.73079338     2.76962177    -2.42179266
 H                     1.95000442     4.26553505    -1.50967821
 H                     3.21707191     3.04758595    -1.50314476
 C                    -0.63728555     3.83869455    -0.14522532
 C                    -1.06323715     4.16756214     1.29869754
 C                    -1.83833706     3.96661782    -1.09147694
 H                     0.08758848     4.59467941    -0.44559792
 H                    -0.22765835     4.10426722     1.99168999
 H                    -1.46425805     5.18104497     1.34477229
 H                    -1.84513745     3.49302590     1.64928394
 H                    -1.53484020     3.81556640    -2.12645405
 H                    -2.60701483     3.22884527    -0.85385343
 H                    -2.29261437     4.95447650    -1.00432864
