   154
 geometry
 O                     4.62263106     1.75197247     3.53785174
 H                    -1.84620648    -5.78639063     0.57411874
 H                     4.84665515     9.57910956    -3.31728077
 Si                   -1.98757413    -8.57187713    -2.77582174
 Si                    0.67242589    -7.65427151     0.82188015
 Si                    2.76802444    -4.00361505     4.50284876
 H                     1.66529108     6.25695994     0.55819483
 Si                   -3.62558918    -4.88384534    -0.94181649
 Si                    0.35130712    -2.39945700     0.99121518
 Si                    4.11820605     0.65618765     2.40840627
 H                    -1.70685011     3.13631374     2.96843479
 Si                   -4.41865072    -0.55342035     2.07734335
 Si                   -0.38920616     2.39980562     0.69914604
 Si                    3.72835183     4.76988770    -0.75473532
 H                    -1.69250624    -7.81567007    -0.13073258
 Si                   -3.61257442     4.36153453     4.05179754
 Si                   -0.64249368     7.12315138     0.97403974
 Si                    2.47221379     8.48534171    -3.21253583
 O                    -2.74291274    -0.65324054     2.17570397
 O                     2.05288818    -5.00148883    -4.66315804
 O                     6.33912410    -4.68416865    -0.64995539
 O                    -0.96271652     6.28062249     2.36343142
 O                     1.07165337     2.69967734     1.45802635
 O                    -2.49957592    -1.83879620    -4.22534725
 O                     3.63930809    -0.87902031    -3.69370332
 O                     1.94996856     8.29795313    -1.65764649
 O                     4.68394882     6.09732869    -0.51713154
 O                    -4.69772256     2.38787245    -2.03642833
 O                    -0.65017040     2.57121229    -4.06088580
 H                    -2.08549728    -1.35770539     1.98914626
 H                    -3.85403780     3.74244055     6.57872689
 O                     2.51102631     4.70493080     0.38394838
 O                     0.99663565    -1.79269506     2.40027975
 O                    -2.81512336    -4.97699992    -5.15070745
 O                    -4.93694692     1.01191571     2.17511158
 Si                   -4.97358417     3.64739638    -0.99896732
 Si                   -0.69646108     4.24472122    -3.92185535
 O                     1.53635318    -4.75567730    -1.99236243
 O                     5.21705086    -3.08303713     1.25064783
 H                     5.11077548     6.94136776    -0.39264350
 H                    -3.68506139    -7.67400069    -1.09308120
 Si                   -2.02065547    -5.48308257    -3.78334906
 O                    -4.73129314     3.52286833     3.13641105
 O                    -1.50666422     6.30892396    -0.22572906
 O                    -2.12493204     3.86170204     3.46605699
 Si                    2.00078834    -4.89502427    -0.40398452
 O                    -1.37437950     4.66031222    -2.46601691
 H                    -1.23977047     5.54390842     2.93055138
 H                     3.94986892     4.41617755    -5.70590508
 Si                    5.17536770    -2.46698864     2.79489007
 O                    -3.52202510     4.47519185    -0.87030565
 O                     0.97287343     6.95462127     0.56846328
 O                     1.51405064    -6.36114844     0.21432704
 O                     3.06261183     4.85859287    -2.28252933
 O                    -6.40177673    -1.73343524    -1.56056036
 O                     3.99165741     9.16117268    -3.27578905
 O                     4.01020433    -3.28587976     3.66501161
 H                    -3.11511350   -10.47825487    -4.14810410
 O                    -1.14927432    -0.47573417    -2.28484585
 H                     4.87381732     2.41710593     4.17390162
 H                    -1.95129354     0.89966263     2.04887168
 O                    -3.75683594     5.99443581     3.83479047
 O                     4.00033758     0.98029336    -1.75710048
 H                    -6.84508982     5.25228083    -1.85733371
 O                    -4.35561850    -3.40983508    -0.83523767
 O                    -1.06870864     8.71851830     1.05345278
 H                    -2.06288509     5.29385629    -5.87730352
 O                     1.42180126     9.40452666    -4.11385095
 H                     7.50718604    -2.67547940     3.94647994
 H                     7.48802164     1.29409284    -1.14821877
 H                    -8.11186658     2.53423990     2.70437882
 H                     2.59498237    -5.45334811    -5.30427519
 H                     7.08296665    -5.24499228    -0.85133075
 O                    -2.87261860    -5.04727041    -2.41269485
 O                     1.17894970    -3.72847579     0.45586203
 H                    -2.42497184    -2.63090266    -4.75813304
 H                     3.74292544    -1.66142081    -4.23406638
 O                     3.34770728     4.50664943    -4.96918864
 O                     0.88321934     4.76457620    -3.92092507
 O                    -3.77924961     3.95680025     5.65301987
 O                    -0.93511403    -7.50211752     0.41286485
 H                    -5.66840176    -6.42532379    -0.63635766
 O                     4.71322165    -0.86955090     2.70274972
 O                     1.13164614    -2.65308301    -3.61722380
 O                     4.87596638    -2.48802609    -1.39596193
 O                     2.06336301    -5.18913613     3.59481272
 H                    -4.30404180     1.74392494    -2.64293534
 O                    -2.92093237     0.86253111    -3.71111094
 O                     2.82804527     1.73336870    -4.07474283
 H                     1.23369493    -2.05859615     3.31812104
 O                    -0.49910039    -4.83813155    -3.73757573
 O                    -6.17156722     4.65306346    -1.54883209
 O                    -1.55385306     4.89087653    -5.17892736
 O                    -4.78014647    -6.10299054    -0.78761823
 O                     3.61980604    -4.57977495    -0.29300580
 H                    -0.13384240     1.76309524    -4.06793321
 O                    -5.36071244     3.09554981     0.52791397
 O                    -1.24495481    -2.83068210     1.25443756
 H                     1.68183959     2.10143570     1.94947131
 H                    -3.31052287    -4.85111568    -5.95745857
 O                     6.65086385    -2.61284156     3.53206265
 H                     1.59206414     7.97467382    -0.80648252
 O                    -4.78226406    -1.16362097     0.56838320
 O                    -5.11054936    -1.47971942     3.26416380
 H                    -7.27270536    -1.56623528    -1.91195298
 Si                   -5.57669176     2.55577217     2.08400477
 O                    -0.09437922     1.28749597    -0.50645416
 O                     0.41048977    -1.26841418    -0.21690845
 O                    -3.78016945    -1.08952148    -1.98023568
 Si                   -1.91177830     4.85613422    -0.90206637
 H                     1.70326069    -5.88256122     3.03339558
 H                     2.91388485     2.59337992    -4.51014325
 H                     1.16711719    -1.70641167    -3.46690687
 Si                    2.45572303     5.27386388    -3.77236083
 O                    -1.08545965     3.72208085     0.01545035
 O                    -2.73064314    -9.77388335    -3.63252171
 O                     2.44457473     0.53723332     2.40870242
 H                     1.94406087     4.07371452     0.89241677
 O                     4.56518939     3.33239195    -0.65699972
 H                    -5.50717089    -1.97333285     3.97699953
 H                     0.79842214    -7.90300343     3.40873858
 Si                   -4.86789104    -1.81521452    -0.95068714
 H                    -1.86697794    -3.55465420     1.03420206
 H                     1.11191797    -2.26346225     5.44540285
 O                    -0.49471762    -9.01463018    -2.22886975
 Si                    0.17468486    -0.09593226    -1.36590139
 O                     1.50475052     0.06978883    -2.36449454
 O                    -2.89346713    -8.13905056    -1.41094894
 O                     1.26613342    -9.08050685     0.17480801
 Si                    4.97282404     1.72110753    -0.61601029
 H                     1.76712321    -0.17298184     2.39710826
 O                    -7.18682924     2.51440748     2.47571751
 O                    -2.47622755    -5.11350648     0.25444953
 O                     0.85141144    -7.67807302     2.48080382
 O                     6.56738853     1.46153243    -0.96497681
 O                    -1.93190883    -7.14555545    -3.64927971
 O                     3.31280406    -4.60346693     5.95190331
 O                     1.63668701    -2.79136540     4.83765626
 Si                    1.06708014    -4.30096639    -3.52912925
 Si                   -2.61155714    -0.65007099    -3.08077787
 H                     0.27786847    -9.16089642    -1.67510857
 H                     1.78743904    -9.87438675     0.06456296
 Si                    5.05259284    -3.70589861    -0.28681357
 Si                    3.00789748     0.49555974    -2.99413896
 H                     3.67693222    -4.94809316     6.76306985
 O                     2.54194310     6.92602108    -3.85428372
 O                    -1.40775178     1.68922103     1.81274537
 H                     4.65721693    -1.79422281    -2.02501152
 O                     4.59125949     1.13628658     0.88997526
 H                    -2.46243275     1.65850812    -4.02209675
 H                     0.77778041     9.91168597    -4.59929946
 H                    -1.25741353     9.65266886     1.04562150
 H                    -3.66078458     6.91321444     3.59498623
 Bi                   -0.66651829     0.66180693     5.25291234
