22
C6H12ClO2P optimized with ADF in AMS.
Cl       3.01641688393265      -0.04560345859400       0.70287205505106
P        1.58907378289062      -0.52064943751179      -0.82094083026328
O        0.69316924557130       0.81315175829937      -0.93977035500347
O        0.50167479969521      -1.33459647211773       0.05743586890131
C       -0.45707829346823       0.83747483300088      -0.03896074195301
C       -0.79626083253249      -0.67342457026567       0.13320110732035
C       -0.04830590140810       1.52410754762074       1.25230850176422
C       -1.53972011985454       1.63650522696928      -0.73243292148935
C       -1.63792230463948      -1.23368272480327      -1.00109088577392
C       -1.41150157715361      -1.02001701877374       1.47128902584153
H       -0.92025233846341       1.67734411655109       1.88883227229770
H        0.69466168358196       0.95487788319267       1.80700556399555
H        0.37431476637818       2.50021554759126       1.01342329511018
H       -1.73682408522767       1.26486391239138      -1.73596356123094
H       -2.46417546587338       1.59414077842300      -0.15402097646342
H       -1.23348977400591       2.68031621957870      -0.80281049667274
H       -2.65908385443216      -0.85549634061132      -0.95448599956797
H       -1.21782130471800      -0.98343996981980      -1.97623277620374
H       -1.67081138880619      -2.31940982532047      -0.91025756539414
H       -2.35569683870705      -0.48726900861134       1.59762147262142
H       -1.61955357956220      -2.08928716550360       1.51159333560603
H       -0.75151350319748      -0.76372183168564       2.29738461150665
