15

S       0.00000000      -0.00000000      -0.99556118
C       1.40979951      -0.00000000       0.21560169
H       1.33949289       0.89305597       0.84646137
H       1.33949289      -0.89305597       0.84646137
C       2.72087983      -0.00000000      -0.56319637
H       2.83165196       0.89405510      -1.18119020
H       2.83165196      -0.89405510      -1.18119020
C      -1.40979951       0.00000000       0.21560169
H      -1.33949289      -0.89305597       0.84646137
H      -1.33949289       0.89305597       0.84646137
C      -2.72087983       0.00000000      -0.56319637
H      -2.83165196       0.89405510      -1.18119020
H      -2.83165196      -0.89405510      -1.18119020
Cl       4.14896268      -0.00000000       0.59288249
Cl      -4.14896268       0.00000000       0.59288249
