1
Mc optimized with Band in AMS.
 Mc       0.00000000000000       0.00000000000000       0.00000000000000
VEC1       0.00000000000000       2.73876389429496       2.73876389429496
VEC2       2.73876389429496       0.00000000000000       2.73876389429496
VEC3       2.73876389429496       2.73876389429496       0.00000000000000
