1
Nh optimized with Band in AMS.
 Nh       0.00000000000000       0.00000000000000       0.00000000000000
VEC1      -1.98259329647560       1.98259329647560       1.98259329647560
VEC2       1.98259329647560      -1.98259329647560       1.98259329647560
VEC3       1.98259329647560       1.98259329647560      -1.98259329647560
