    15
 geometry
S        0.000000000      0.000000000     -0.930963322
C        1.414151447      0.000000000      0.214148695
H        1.346778675      0.868941674      0.846112274
H        1.346778675     -0.868941674      0.846112274
C        2.699056509      0.000000000     -0.564294564
H        2.799678336      0.873966701     -1.181822879
H        2.799678336     -0.873966701     -1.181822879
C       -1.414151447      0.000000000      0.214148695
H       -1.346778675     -0.868941674      0.846112274
H       -1.346778675      0.868941674      0.846112274
C       -2.699056509      0.000000000     -0.564294564
H       -2.799678336      0.873966701     -1.181822879
H       -2.799678336     -0.873966701     -1.181822879
Cl       4.101108679      0.000000000      0.565098302
Cl      -4.101108679      0.000000000      0.565098302
