    37
 geometry
 O                     0.58273002    -0.75479134    -0.04583468
 P                    -0.14559393     0.39004213    -1.05406615
 O                     0.98678552     1.63349479    -1.09524996
 O                    -1.08235335     1.16506548     0.11529048
 C                     0.87893638     2.53894449     0.05793087
 C                    -0.65931767     2.54545542     0.36812392
 C                     1.72875614     1.97249438     1.20134351
 C                     1.43222774     3.88825603    -0.39147792
 C                    -1.46117146     3.44948672    -0.57546107
 C                    -1.00306271     2.85838649     1.82221123
 H                     1.80110848     2.69127223     2.03120602
 H                     1.31959171     1.02798503     1.58166279
 H                     2.74458886     1.77960876     0.82533870
 H                     0.95977094     4.23212221    -1.32064094
 H                     1.26990486     4.64652728     0.39038463
 H                     2.51582424     3.80672162    -0.56473133
 H                    -1.29694557     4.51339747    -0.34940638
 H                    -1.19479560     3.27185839    -1.62806612
 H                    -2.53216452     3.23208192    -0.45002537
 H                    -0.63242067     3.85851853     2.09608186
 H                    -2.09530910     2.85200877     1.95478171
 H                    -0.56881075     2.12070414     2.50926972
 C                     0.70709131    -2.10420605    -0.53630731
 C                    -0.21586087    -3.02234976     0.26325801
 N                    -0.10971920    -4.41793691    -0.16291219
 C                     1.08822395    -5.06724641     0.36230336
 H                    -2.19364883    -4.72028500    -0.25239170
 H                     1.16406569    -6.08853740    -0.04205516
 C                    -1.30103363    -5.17874032     0.19988630
 H                     0.44935846    -2.16094597    -1.60858782
 H                     1.76433772    -2.38912136    -0.42661169
 H                    -1.25151123    -2.68629421     0.09568167
 H                    -0.00810569    -2.89459300     1.35000628
 H                    -1.46327884    -5.23655110     1.30065156
 H                     1.08451024    -5.13760827     1.47438997
 H                     1.99254783    -4.51901518     0.06178304
 H                    -1.21232236    -6.20892822    -0.17931976
