66
  Molecule 3 - S1 min - minimum A
C       -0.146935000      2.972075000     -0.286763000
C        1.165171000      2.692924000      0.125349000
C        2.124192000      3.693094000      0.245472000
C        1.729323000      4.992389000     -0.063532000
C        0.424561000      5.282477000     -0.485715000
C       -0.524089000      4.270282000     -0.606806000
C       -0.890639000      1.710990000     -0.313870000
C        0.085982000      0.695000000      0.127281000
H        3.147588000      3.471920000      0.525643000
H        2.455501000      5.795417000      0.013537000
H        0.154653000      6.307235000     -0.719996000
H       -1.538342000      4.478443000     -0.932261000
C       -0.085982000     -0.694995000      0.127278000
C        0.890641000     -1.710982000     -0.313877000
C        0.146938000     -2.972069000     -0.286773000
C       -1.165169000     -2.692921000      0.125336000
C        0.524096000     -4.270274000     -0.606816000
C       -2.124189000     -3.693092000      0.245453000
C       -0.424553000     -5.282471000     -0.485730000
H        1.538350000     -4.478434000     -0.932268000
C       -1.729317000     -4.992386000     -0.063551000
H       -3.147586000     -3.471921000      0.525622000
H       -0.154643000     -6.307228000     -0.720012000
H       -2.455494000     -5.795415000      0.013513000
O       -2.063985000      1.516896000     -0.646996000
O        2.063988000     -1.516885000     -0.646997000
N       -1.284723000     -1.329187000      0.380960000
N        1.284722000      1.329190000      0.380969000
C       -2.408788000     -0.765603000      1.092884000
H       -2.686622000     -1.442839000      1.910517000
H       -2.119638000      0.187431000      1.531655000
C        2.408787000      0.765602000      1.092893000
H        2.119636000     -0.187430000      1.531666000
H        2.686623000      1.442840000      1.910523000
C       -3.630717000     -0.568598000      0.199418000
O       -3.821318000     -1.182641000     -0.822654000
O       -4.446805000      0.298381000      0.784316000
C        3.630715000      0.568595000      0.199425000
O        3.821323000      1.182647000     -0.822640000
O        4.446797000     -0.298395000      0.784317000
C       -5.697415000      0.726553000      0.150178000
C       -5.399431000      1.363781000     -1.204753000
C       -6.654085000     -0.458575000      0.043341000
C       -6.228575000      1.766999000      1.131245000
H       -4.612991000      2.116063000     -1.100186000
H       -5.069442000      0.618839000     -1.930041000
H       -6.307838000      1.845827000     -1.581044000
H       -6.805734000     -0.916686000      1.026409000
H       -7.624258000     -0.108198000     -0.323644000
H       -6.271366000     -1.211871000     -0.647161000
H       -7.183353000      2.163060000      0.772275000
H       -6.385861000      1.322443000      2.118933000
H       -5.521306000      2.595927000      1.229061000
C        5.697409000     -0.726562000      0.150181000
C        5.399432000     -1.363765000     -1.204763000
C        6.654088000      0.458561000      0.043373000
C        6.228555000     -1.767029000      1.131234000
H        4.612981000     -2.116037000     -1.100217000
H        5.069462000     -0.618805000     -1.930043000
H        6.307837000     -1.845817000     -1.581052000
H        6.805738000      0.916650000      1.026452000
H        7.624260000      0.108184000     -0.323616000
H        6.271377000      1.211875000     -0.647114000
H        7.183334000     -2.163089000      0.772265000
H        6.385834000     -1.322493000      2.118932000
H        5.521281000     -2.595956000      1.229028000
