21
H2BiO12Si6 optimized with Band in AMS.
O        -0.90475424989528       1.21242872921828      -4.74667294864480
O         0.90452392544930       0.59441317959618      -1.09083484727492
O        -1.89145941676476      -1.66409744807318      -2.89481103991582
O        -0.87795433987850      -1.17035793657499      -0.41359108247555
O         0.95028930982414      -0.54364502087270      -4.14034185979205
O         3.00436799687169       1.74072570747181      -2.28890849285502
Si       -0.14367231126414       0.21232633110132       0.18358349496606
Si        1.50339138088559       2.00941951272849      -1.67775483261702
Si       -3.38309201254414      -1.94575641567288      -3.51351347073769
O        -0.90391082716282       0.92512576789758     -10.19426140994428
O         1.02605441002701       0.60648507652717      -6.56955237733489
O        -1.84266713693706      -1.79297072735936      -8.50695735593888
O        -0.93547884646629      -1.08918679864366      -6.04197018325193
O         1.03062080209002      -0.73639243162864      -9.93971191492290
O         3.04814509443075       1.83842699309027      -7.82011498508530
Si        0.04743284752272       0.04032722062663      -5.37716906675766
Si        1.53465595982597       2.01614514414097      -7.23018924229931
Si       -3.34181423099474      -2.06155910203236      -9.11383608986244
H        -0.19726312563730       0.21935432764230     -10.03740499253879
H         1.48455825466915      -0.58563219626900     -10.83164343121822
Bi       -1.77933776567826       0.59782351709813     -12.58032874965283
VEC1       4.89282791190410       0.00000000000000       0.00000000000000
VEC2       2.44592294991774       4.23882982958492       0.00000000000000
