41
C12H25O3P optimized with ADF in AMS.
O        3.37860867581472      -0.46689046579018       0.06150835866886
P        2.30535560600739       0.22998236527854      -0.96050630474214
O        1.50966689140972       1.30585035984598      -0.00883071575454
O        1.09841193932802      -0.88740277218771      -0.87131108394740
C        0.40286339598141       0.71414024600232       0.71558852324659
C       -0.10906540494817      -0.37705424340037      -0.26725722239778
C        0.92416918655219       0.14272307092766       2.02632587449260
C       -0.59579806348114       1.82108522279684       0.98813253278204
C       -0.97890226747280       0.18916929336754      -1.38103519268085
C       -0.81046957623924      -1.53896317565643       0.40778392447902
H        0.10095835626492      -0.20032798234854       2.65600725414938
H        1.61322194435489      -0.68401348599200       1.85762907834314
H        1.45866830066058       0.92855084477921       2.56223116340807
H       -0.85951910918322       2.35393187370971       0.07605111515791
H       -1.50562839323984       1.41366397799167       1.43571542029128
H       -0.16566387236144       2.53702792155632       1.68987026823492
H       -1.95968377355476       0.49103017772459      -1.00937839192279
H       -0.50441731563190       1.05000498670630      -1.85500152800214
H       -1.12048191004895      -0.58241897382016      -2.13870944263690
H       -1.69322230736874      -1.19092136190192       0.94986248666691
H       -1.13750128738182      -2.25588685492578      -0.34649025162979
H       -0.14852540882462      -2.05280817899457       1.10257659598195
C        4.75872896717263      -0.53095050819595      -0.34363265503344
C        5.62151445691098       0.27251404899373       0.65029465838034
H        4.45445368478767      -2.45472132253435      -1.23408392568110
H        4.99278983693599      -2.53131754800454       0.44288621047280
C        5.48644904620768      -0.27347336592454       2.06999902605746
C        5.16611810443599       1.73147850653861       0.62536350823488
H        6.14403201931350      -2.11960976343610      -0.84325604625775
C        5.11664254839135      -1.99492269724185      -0.49913273808560
H        4.85255348706475      -0.03913088643255      -1.32211031844977
C        7.08412785321980       0.21045170782979       0.20921760819982
H        5.79219202698276       2.33389635295631       1.28819613150420
H        4.13035899970564       1.83402046028121       0.95201867688274
H        5.24614920132548       2.15190935932668      -0.38163151426329
H        5.86461003978489      -1.29497271352431       2.15114776902359
H        4.44377293702241      -0.26705421997962       2.39215905365607
H        6.06038413170052       0.34532651438951       2.76445518685567
H        7.68809517089297       0.87759696085233       0.82872483753688
H        7.20118057776762       0.52950605548814      -0.83066395074031
H        7.50033830374013      -0.79394787705151       0.30677455951842
