1
Cn optimized with Band in AMS.
 Cn       0.00000000000000       0.00000000000000       0.00000000000000
VEC1      -1.86910859643146       1.86910859643146       1.86910859643146
VEC2       1.86910859643146      -1.86910859643146       1.86910859643146
VEC3       1.86910859643146       1.86910859643146      -1.86910859643146
