8
H3O4P optimized with ADF in AMS.
P       -0.00000000125000       0.00000000000000      -0.15579734555356
O       -1.38058388801131      -0.34999009729912       0.53942860545403
O        0.99339225746467      -1.02062566934119       0.53942860545403
O        0.38719162679663       1.37061576664031       0.53942860545403
O       -0.00000000125000       0.00000000000000      -1.62493663144163
H       -2.13315700692783       0.01634316344773       0.05414939354436
H        1.05242490686498      -1.85553973890161       0.05414939354436
H        1.08073209631285       1.83919657545388       0.05414939354436
