7
 CH3-NO2
C         0.664386    0.007916    0.000000
N        -0.825973    0.016293    0.000000
O        -1.401548    0.005785    1.079670
O        -1.401548    0.005785   -1.079670
H         1.002073    0.501360    0.902842
H         1.002073    0.501360   -0.902842
H         0.960538   -1.038499    0.000000
