17

Si      -0.00017510       0.00024027      -0.00143865
C      -0.93547743      -0.17545889      -1.64449158
C       0.89933778       1.67192175       0.04602104
C       1.26825978      -1.40468989       0.15633754
C      -1.23232583      -0.09136664       1.44055047
H      -1.46857244      -1.13511729      -1.69612828
H      -1.67739359       0.62586326      -1.76776709
H      -0.24753650      -0.12896790      -2.50015204
H       1.62421276       1.75840255      -0.77540442
H       0.19062040       2.50698886      -0.04409019
H       1.44735801       1.79969359       0.99005483
H       1.82853913      -1.33031496       1.09889345
H       0.77718108      -2.38758413       0.13686956
H       1.99522716      -1.37829572      -0.66726689
H      -0.71947535       0.00791077       2.40742177
H      -1.98045106       0.71099460       1.37564725
H      -1.76992882      -1.04992022       1.44464323
