117

O       5.34792193      -0.82341746      -3.63134739
H      -2.21479253       5.95488462      -0.56303956
O      -1.73096036      -2.27099746      -2.46622898
O       6.31159638      -1.13412636       0.38746614
O      -2.26562363       6.92878317       2.92332112
Si      -2.30181464       0.54508419       2.22023956
O       2.82962195      -0.41336295      -3.15543574
Si      -3.59730759       4.55887769       0.72811991
Si       0.50206396       2.27197302      -1.36526944
Si       4.28880353      -0.38596001      -2.52688071
H      -1.61522092       3.27766300      -1.46406563
Si      -4.46245732       0.51197787      -2.39648200
Si      -0.61647779      -2.40872402      -1.33948622
Si       3.71471979      -4.40384250       0.66245450
Si       4.79527937      -1.58569896       0.21528859
H      -2.08820139       7.56209414       2.36740601
H       1.92500790      -4.68796385      -0.83005008
H       5.09252066       1.90973524       1.78373396
O      -2.96659116       0.97795394      -2.67111506
O       2.01598114       4.66808384       3.63600460
O       5.91539533       4.72963426       0.85186965
O       4.65294161      -3.11773826       0.62599814
O       0.81741187      -2.46171133      -2.02412256
O      -2.44570149       1.73221328       3.27001673
O       2.60380758       0.78905426       2.85552531
O       4.35595357      -1.39685719      -1.30112773
O       4.59791392      -5.70617003       0.42415145
O      -4.50328627      -2.57800896       1.58400863
O      -0.25796773      -2.77453575       3.08497552
H      -2.13521723       0.77708915      -2.57361462
H       1.27374961       6.48770222      -1.05634896
O       2.60778467      -4.30202216      -0.47452645
O       0.69869049       1.90266591      -2.89971786
O      -2.88147550       5.01626592       4.57224524
O      -4.52606529      -1.07689700      -2.42249728
Si      -4.77758511      -3.59194290       0.38962022
Si      -0.69090663      -4.30180716       3.00376667
O       0.85267255       4.44911747       1.32263450
O       4.95501260       3.55321961      -1.25504536
H       5.12611964      -6.11556241      -0.11907835
H       2.40888780      -7.74135913       3.13710645
Si      -2.09428155       5.37759413       3.23732901
O      -4.81258978      -3.54095729      -3.18275857
O      -1.72957680      -6.16809099      -0.17034990
Si       0.11951299      -0.10034458       0.50313755
Si       1.87790076       4.53668271       0.10857456
O      -1.73177176      -4.49602149       1.81766041
H      -5.65864331       1.80983871      -3.95063506
H       3.04052607      -4.76739202       5.13574567
Si       5.12741387       2.53198137      -2.46337450
O      -3.39585839      -4.17305855      -0.14733558
Si       0.68952835       4.20693100       2.88669407
O       1.76631541       5.96795817      -0.57770524
O       3.00558789      -4.50069641       2.08207224
O      -5.74773997       1.82142787       1.36916296
H      -2.54856672      -1.22944449       3.74181816
O       4.27220973       3.03696576      -3.70651978
Si       4.80013431       3.72689163       0.31975248
O      -0.86939606       0.60911697       1.52893987
H       5.60101658      -1.45335810      -4.16120853
H      -1.96905365      -1.85255720      -3.18014211
O       1.28163632      -0.83238245       1.30775711
O       3.87383821      -0.68232635       1.14519497
H      -6.45576311      -5.00513675       1.23756727
O      -3.80730527       3.08007933       0.17526904
Si      -4.48022860       1.65724024       0.42045001
H      -1.76003289      -5.36876306       4.80640350
O       2.52808365      -6.93571146       2.85727315
H       7.31802450       2.86873077      -3.25068245
H       6.85993769      -0.47041583       0.36544685
H      -7.69935954      -2.34667153      -2.97938303
H       2.86503654       4.54373594       3.71110841
H       6.75815622       4.90627357       0.87318997
O      -2.68317393       4.52291117       2.02987675
O       1.53142795       3.41228770      -0.96044979
H      -2.96312152       2.11005810       3.84549275
H       3.04980665       1.35001508       3.33327619
O       2.43080819      -4.97939232       4.56553670
O       0.59279696      -5.20451308       2.74085692
H       4.16579896       3.66604914      -4.28494911
H       1.98881121      -0.33081728      -2.99368168
H      -5.76358820       5.47344473       0.77758162
O       4.62199405       1.08768263      -2.02576730
O       0.43821482       2.66322363       3.16596344
O       4.97126950       2.31505181       1.03372567
O      -6.90701332      -2.03800869      -2.84311948
H      -4.86356702      -2.08026480       2.18726737
O      -2.46982396      -0.84415361       2.97567125
O       2.76696032      -1.77302022       3.22656079
H       0.79601359       2.21168817      -3.69766872
O      -0.54892147       5.04713667       3.42626948
O      -5.68933656      -4.78852132       0.90945154
O      -1.37014948      -4.73219772       4.37694302
O      -5.00976101       5.19740041       1.08945108
O       3.35969334       4.31787587       0.64658758
H       0.05985342      -2.15482642       3.59108000
O      -5.52695279      -2.83044267      -0.78887792
O      -0.98075088       2.79716367      -1.13658953
H       1.32001845      -2.87869422      -2.58547183
H      -3.65622384       4.95193657       4.94261927
O       6.66308816       2.45382041      -2.87535399
H      -4.78329005      -4.39163777      -3.31398401
O      -4.93844389       1.04225851      -0.97337643
O      -5.41547540       1.10052009      -3.52706205
H      -6.37047905       1.40883545       1.79778756
Si      -5.44498223      -2.37015560      -2.30920321
O      -0.69656429      -1.16084614      -0.35752511
O       0.76131275       0.98624803      -0.46569588
O      -3.42899932       0.68128672       1.10710695
Si      -1.92796636      -4.64534263       0.24606279
O      -2.88682299       5.44614362      -0.38556912
H       3.27190683      -2.11668519       3.83361210
H       0.31396819       2.06460902       3.77239684
Si       2.13826854      -5.40617035       3.06063584
O      -0.85791898      -3.74706355      -0.51487348
Si       2.62858912      -0.62699860       2.13214736
H      -1.18141952      -6.83213625      -0.18661856
