   153
 geometry
 O                     4.75800985    -1.56624596    -3.92699061
 H                    -1.82183188     5.78692605    -0.91853191
 H                     4.84679229    -9.69597093     2.72298451
 Si                   -2.13235151     8.55509058     2.44894473
 Si                    0.67718114     7.68587417    -1.02205930
 Si                    3.12462609     4.25449485    -4.66323955
 H                     1.68970613    -6.20357208    -1.07440275
 Si                   -3.63477906     4.84062134     0.53453337
 Si                    0.38542808     2.43826343    -1.49753523
 Si                    4.23649195    -0.56766620    -2.71633212
 H                    -1.84429589    -3.33477815    -3.75813892
 Si                   -4.41401827     0.53832150    -2.60195951
 Si                   -0.54176161    -2.40036745    -1.44329334
 Si                    3.72522770    -4.79868964     0.24691928
 H                    -1.73813198     7.83717123    -0.19425854
 Si                   -3.84302195    -4.82834839    -4.04316900
 Si                   -0.53740610    -7.16201635    -1.65260343
 Si                    2.46939040    -8.61028843     2.60706750
 O                    -2.75837275     0.67791760    -2.83401353
 O                     1.94858060     4.58968696     4.35188185
 O                     6.23886938     4.69412856     0.71414519
 O                    -0.76365180    -6.35810064    -3.07888323
 O                     1.03089289    -2.60751649    -1.98326088
 O                    -2.48022613     1.71775775     3.77775220
 O                     3.13012947     0.84577483     3.11909981
 O                     1.97051657    -8.37689960     1.05053593
 O                     4.61454295    -6.15031475    -0.08960428
 O                    -4.58612701    -2.53985469     1.64169162
 O                    -0.58956686    -2.68856158     3.34029209
 H                    -2.06423990     1.34088623    -2.65896278
 H                    -4.48747611    -5.52469582    -6.47379470
 O                     2.49240932    -4.61826207    -0.86426831
 O                     1.12156414     1.92071840    -2.89742424
 O                    -2.99791266     4.95820988     4.77936887
 O                    -4.92543212    -1.03372540    -2.66123472
 Si                   -4.97792702    -3.70757852     0.53946554
 Si                   -0.72691923    -4.36324309     3.19266743
 O                     1.38145747     4.62757779     1.68362271
 O                     5.28838791     3.09988743    -1.28029525
 H                     4.99815634    -7.00696077    -0.26047078
 H                    -3.76112522     7.63576280     0.70929588
 Si                   -2.15464848     5.45856048     3.44101121
 O                    -4.86390109    -3.64670161    -3.44503407
 O                    -1.53286738    -6.35897132    -0.54438725
 O                    -2.31089243    -4.15150913    -4.00899323
 Si                    1.93353568     4.85972432     0.13139818
 O                    -1.34347792    -4.74207978     1.70140217
 H                    -1.13513144    -5.65960676    -3.64111941
 H                     3.80407691    -4.54306677     5.23678551
 Si                    5.34252301     2.56088387    -2.85100336
 O                    -3.56766162    -4.56941761     0.23830769
 O                     1.02965726    -6.92941221    -1.11413239
 O                     1.46802988     6.35704814    -0.42563895
 O                     3.06916866    -4.95827431     1.77214300
 O                    -6.34401291     1.61888830     1.05646750
 O                     3.98742740    -9.28771569     2.67660325
 O                     4.26623661     3.46116573    -3.75765426
 H                    -3.33860675    10.41802711     3.81352085
 O                    -1.06367570     0.51105705     1.79778682
 H                     5.03144846    -2.18607120    -4.59836985
 H                    -1.98811803    -0.98883075    -2.94616979
 O                    -3.89507097    -6.13226082    -3.02282003
 O                     4.06030733    -1.07629506     1.38635295
 H                    -6.84542168    -5.31520001     1.40115741
 O                    -4.32177195     3.34813752     0.39297598
 O                    -0.90961223    -8.77116698    -1.72552009
 H                    -2.28260680    -5.31276030     5.05417646
 O                     1.40532020    -9.55239323     3.46767578
 H                     7.75928436     2.75226077    -3.81561651
 H                     7.56738142    -1.42133242     0.86780529
 H                    -8.17080976    -2.39288152    -3.11538470
 H                     2.57856012     4.87067789     5.01076586
 H                     6.96335307     5.24910582     0.98858219
 O                    -2.94372072     5.01009817     2.03580227
 O                     1.17258646     3.73786153    -0.83599901
 H                    -2.49181804     2.46440420     4.37603787
 H                     2.65439443     1.61473597     3.45816648
 O                     3.23506467    -4.64886495     4.47622537
 O                     0.82971528    -4.93231685     3.30104078
 O                    -4.27004806    -5.25839236    -5.58510981
 O                    -0.94966896     7.54157735    -0.70146086
 H                    -5.70270799     6.33661586     0.17053402
 O                     4.83240591     0.97726967    -2.88662193
 O                     0.69800106     2.47252453     3.16798412
 O                     4.71217438     2.50032791     1.33843097
 O                     2.32950010     5.38810380    -3.76557140
 H                    -4.14164539    -1.91130526     2.23185507
 O                    -2.76114146    -0.98154109     3.14800986
 O                     2.62607846    -1.86259184     3.54171232
 H                     1.45947769     2.22531504    -3.76755384
 O                    -0.63879964     4.79269381     3.44326489
 O                    -6.16926175    -4.71855845     1.09349983
 O                    -1.69941221    -4.95371547     4.39056104
 O                    -4.81380218     6.03177349     0.35081962
 O                     3.55914477     4.57437559     0.11754385
 H                     0.07411956    -1.99193949     3.35902785
 O                    -5.43947615    -3.03214628    -0.91466741
 O                    -1.20154109     2.87347292    -1.80143040
 H                     1.70269503    -1.99616640    -2.36614738
 H                    -3.51356374     4.82175545     5.57126210
 O                     6.86998391     2.69918422    -3.47643716
 H                     1.62674019    -8.00706988     0.21204463
 O                    -4.69491349     1.12540038    -1.06496891
 O                    -5.22317237     1.45440956    -3.72260162
 H                    -7.21589127     1.42354973     1.39056462
 Si                   -5.64075769    -2.53565413    -2.48938989
 O                    -0.44299081    -1.25201727    -0.23291485
 O                     0.39713223     1.23104171    -0.36398502
 O                    -3.71919953     1.01219088     1.49439090
 Si                   -1.95084627    -4.91922449     0.15806215
 H                     1.90475497     6.05433955    -3.21568591
 H                     2.75677564    -2.69937286     4.00820159
 H                     0.16442015     1.70117367     2.93943815
 Si                    2.41700610    -5.41563905     3.22925753
 O                    -1.20345675    -3.75340689    -0.78203891
 O                    -2.92752541     9.72650209     3.30112834
 O                     2.56222913    -0.44323347    -2.73971017
 H                     1.92113149    -3.98333834    -1.35947338
 O                     4.62164747    -3.39562674     0.22971882
 H                    -5.69326765     1.93497691    -4.39859414
 H                     0.92138389     8.04095169    -3.58536869
 Si                   -4.80612562     1.74336584     0.46464730
 H                    -1.85239512     3.55671518    -1.55102118
 H                     1.54916957     2.65049372    -5.91486736
 O                    -0.63611193     9.03775452     1.95088152
 Si                    0.08891788    -0.00210863     0.70006758
 O                     1.42607753    -0.43678500     1.57326614
 O                    -2.99228422     8.11775551     1.05549905
 O                     1.26092512     9.07827612    -0.29456514
 Si                    5.06298190    -1.79130051     0.25675508
 H                     1.88933516     0.26770961    -2.79102599
 O                    -7.24716951    -2.41389085    -2.88160065
 O                    -2.45435240     5.10841586    -0.62070193
 O                     0.94383728     7.77219171    -2.66789175
 O                     6.65306294    -1.57186386     0.64324584
 O                    -2.06815060     7.11869643     3.30627803
 O                     3.82337773     4.94164521    -6.00463231
 O                     2.02301361     3.08710656    -5.20654883
 Si                    0.86994208     4.12927744     3.18742293
 Si                   -2.55053163     0.56932193     2.58730368
 H                     0.15416007     9.18520971     1.42131168
 H                     1.81731917     9.83926236    -0.13373162
 Si                    4.99366511     3.70687874     0.24546964
 Si                    2.84828019    -0.64993174     2.43198587
 H                     4.28716960     5.34453084    -6.73389768
 O                     2.52736151    -7.06676131     3.28782425
 O                    -1.47228470    -1.77786346    -2.67604139
 H                     4.39257686     1.82724942     1.95710045
 O                     4.71214219    -1.15965746    -1.24026063
 H                    -2.20590169    -1.75520873     3.37511732
 H                     0.76024798   -10.07481222     3.93504279
 H                    -1.05244528    -9.71331201    -1.74536359
 H                    -3.75665517    -6.81352626    -2.36830581
