   153
 geometry
 O                     4.79286767    -1.54877638    -3.88943004
 H                    -1.85673821     5.77425324    -0.93082584
 H                     4.90476110    -9.65217168     2.75921278
 Si                   -2.21142077     8.54285002     2.42887256
 Si                    0.63150450     7.68609838    -1.02055349
 Si                    3.11540000     4.26458117    -4.65102765
 H                     1.72531301    -6.16970944    -1.02166304
 Si                   -3.67614506     4.81765480     0.50745718
 Si                    0.37384017     2.43727513    -1.49440627
 Si                    4.25718055    -0.54255769    -2.69137027
 H                    -1.77758792    -3.36474398    -3.79813423
 Si                   -4.40673210     0.51112035    -2.63294073
 Si                   -0.51660752    -2.40509110    -1.45068950
 Si                    3.76291427    -4.76462087     0.28157107
 H                    -1.78995317     7.82034232    -0.20754977
 Si                   -3.76101324    -4.88624743    -3.99702124
 Si                   -0.47332477    -7.16812293    -1.64754054
 Si                    2.51992711    -8.58280258     2.64688321
 O                    -2.75141027     0.66390673    -2.85612131
 O                     1.88451134     4.60069742     4.36236705
 O                     6.20465452     4.72792191     0.74137092
 O                    -0.66906318    -6.37978889    -3.08678252
 O                     1.06143294    -2.60022562    -1.97910211
 O                    -2.52241881     1.69601094     3.75983136
 O                     3.10066810     0.87773747     3.13323005
 O                     2.01792988    -8.35323870     1.09082675
 O                     4.66101127    -6.10989038    -0.05617148
 O                    -4.59260579    -2.57231189     1.61697212
 O                    -0.59715196    -2.69457571     3.32209780
 H                    -2.06044334     1.32815431    -2.67425199
 H                    -4.42933866    -5.77564768    -6.35601763
 O                     2.52794558    -4.59016869    -0.82843910
 O                     1.12066763     1.92054908    -2.88899615
 O                    -3.06383009     4.93732994     4.75495744
 O                    -4.90511166    -1.06493945    -2.69294921
 Si                   -4.96263593    -3.73998542     0.50771466
 Si                   -0.71590910    -4.37102946     3.17881935
 O                     1.33961795     4.63446047     1.68930390
 O                     5.27087295     3.13003055    -1.25809014
 H                     5.05278808    -6.96254324    -0.22852074
 H                    -3.82230089     7.61341064     0.67703053
 Si                   -2.21760301     5.44822403     3.42252139
 O                    -4.79010224    -3.68010205    -3.46426432
 O                    -1.51228983    -6.37134623    -0.57155924
 O                    -2.23796409    -4.18739536    -4.03621418
 Si                    1.90037716     4.86845062     0.14044206
 O                    -1.31782341    -4.76043858     1.68377141
 H                    -1.03501840    -5.69273640    -3.66533930
 H                     3.78513845    -4.49109609     5.28030397
 Si                    5.34148727     2.59269270    -2.82872428
 O                    -3.54053639    -4.58679596     0.21689872
 O                     1.07350009    -6.90307256    -1.06768397
 O                     1.42818446     6.36253593    -0.41962991
 O                     3.10432904    -4.92977189     1.80513513
 O                    -6.36789009     1.57971141     1.01182456
 O                     4.04260354    -9.24950018     2.71574581
 O                     4.26234066     3.48309727    -3.74197203
 H                    -3.44167265    10.40103419     3.77815075
 O                    -1.08837096     0.49478321     1.79024339
 H                     5.07333984    -2.17282854    -4.55397617
 H                    -1.96504995    -1.00626008    -2.96671490
 O                    -3.78113876    -6.10505052    -2.87540616
 O                     4.05494919    -1.04507276     1.41686210
 H                    -6.82186477    -5.36701166     1.35058315
 O                    -4.34837593     3.31852363     0.36525824
 O                    -0.81671517    -8.78311046    -1.71146105
 H                    -2.27708521    -5.32886398     5.03142290
 O                     1.46303803    -9.53139822     3.50919048
 H                     7.76272525     2.81170201    -3.77591883
 H                     7.56757898    -1.33972675     0.92096656
 H                    -8.12158671    -2.47554330    -3.19929149
 H                     2.50828655     4.88678896     5.02495445
 H                     6.92482363     5.28619946     1.02040742
 O                    -2.99316486     4.99445264     2.01178039
 O                     1.15311158     3.74080155    -0.83100136
 H                    -2.53513032     2.44567138     4.35429518
 H                     2.61611496     1.64143783     3.47132771
 O                     3.22978022    -4.60577611     4.51095763
 O                     0.84499464    -4.92439152     3.30233922
 O                    -4.20491506    -5.43619902    -5.49437881
 O                    -0.99595563     7.52979881    -0.70889180
 H                    -5.75500040     6.29766502     0.13334324
 O                     4.84675928     1.00419172    -2.86799331
 O                     0.65006729     2.47949139     3.16990490
 O                     4.68854329     2.52417053     1.35718098
 O                     2.31007100     5.39256866    -3.75507998
 H                    -4.15479953    -1.94142079     2.21004917
 O                    -2.78619724    -1.00581185     3.12912712
 O                     2.61407980    -1.83203836     3.56730255
 H                     1.45972396     2.22601341    -3.75866017
 O                    -0.69549471     4.79650347     3.43290952
 O                    -6.14725895    -4.76578336     1.04847640
 O                    -1.69262562    -4.96696274     4.37050270
 O                    -4.86541713     5.99698949     0.31687060
 O                     3.52781748     4.59336471     0.13541409
 H                     0.05776551    -1.98977716     3.34585240
 O                    -5.41753278    -3.06650014    -0.94946627
 O                    -1.21251868     2.86604916    -1.80910310
 H                     1.73070215    -1.98673406    -2.36270136
 H                    -3.58387985     4.79648339     5.54321171
 O                     6.87192424     2.74708503    -3.44274847
 H                     1.67220098    -7.98225315     0.25353320
 O                    -4.70071473     1.09649783    -1.09769898
 O                    -5.21780987     1.41919004    -3.75863672
 H                    -7.24120413     1.38083935     1.34004318
 Si                   -5.60106830    -2.57605206    -2.52917746
 O                    -0.43349466    -1.26048295    -0.23529262
 O                     0.38268354     1.23220459    -0.35844916
 O                    -3.74442606     0.98365579     1.46954450
 Si                   -1.92248705    -4.93167303     0.13947016
 H                     1.88129380     6.05394206    -3.20277575
 H                     2.74457177    -2.66981468     4.03247155
 H                     0.12216384     1.70247026     2.94852714
 Si                    2.43946117    -5.38819884     3.25600255
 O                    -1.17175532    -3.76497104    -0.79549303
 O                    -3.02198156     9.71128760     3.27040814
 O                     2.58271578    -0.42736953    -2.72918351
 H                     1.95862791    -3.96142982    -1.33356127
 O                     4.65056557    -3.35613583     0.26509897
 H                    -5.68743787     1.89635906    -4.43731645
 H                     0.89108404     8.03504879    -3.58428011
 Si                   -4.82610761     1.71165945     0.43182644
 H                    -1.86987232     3.54583638    -1.56674656
 H                     1.55471376     2.65023580    -5.90526633
 O                    -0.71430430     9.03345879     1.94150127
 Si                    0.07824104    -0.00501275     0.70161998
 O                     1.41339804    -0.42647069     1.58518454
 O                    -3.05663366     8.09552925     1.02955430
 O                     1.20108693     9.08212913    -0.28880847
 Si                    5.07324991    -1.74666619     0.29289738
 H                     1.90424277     0.27849734    -2.78046619
 O                    -7.20193705    -2.48155314    -2.94945535
 O                    -2.49226431     5.09450823    -0.64207442
 O                     0.90716207     7.77412354    -2.66445203
 O                     6.65780515    -1.50616486     0.68922255
 O                    -2.14477519     7.10926022     3.29074909
 O                     3.80904814     4.95504466    -5.99325946
 O                     2.02381252     3.08763868    -5.19424662
 Si                    0.81666164     4.13673575     3.18923571
 Si                   -2.58043742     0.54649359     2.56950589
 H                     0.07856305     9.18663487     1.41730054
 H                     1.75251427     9.84601892    -0.12466003
 Si                    4.96702045     3.73384286     0.26705415
 Si                    2.83290442    -0.62361949     2.45235775
 H                     4.27014368     5.35967341    -6.72325931
 O                     2.56684293    -7.03756569     3.32493614
 O                    -1.44312051    -1.78718123    -2.68779138
 H                     4.36507956     1.85739618     1.98092704
 O                     4.72427138    -1.12111698    -1.20705378
 H                    -2.22638669    -1.77550891     3.35781353
 H                     0.82109656   -10.05833720     3.97577054
 H                    -0.95836446    -9.72542740    -1.73242812
 H                    -3.63063209    -6.68591236    -2.13153763
