13
xyz prepared by easyxtb
C        -3.90967544386832    -0.01395174816780     0.15384290545138
C        -2.79220647503429     0.67535796636028    -0.05177354516376
H         1.60742158265422     0.36644479063926    -0.73386651166492
Cl        1.54674287458208     0.90969345382084     0.93641719680992
H         1.00310334517762    -0.72486558876887     0.52408490386485
C        -1.46673632133767     0.14368899406854     0.16770983539428
H        -4.88384760633898     0.41127851837432    -0.01620000855577
H        -3.88680300969791    -1.03277857024733     0.50540088159286
C        -0.34678630191237     0.83633218815549    -0.03238992765706
H        -1.41307137044316    -0.88060818775059     0.51529174817166
H        -2.84210772879267     1.69869773834064    -0.40265102538082
C         1.02847011183495     0.30897181747148     0.18828589299124
H        -0.40492465682349     1.86063162770374    -0.37994934585388
