43

S       3.42718509      -0.50102490       0.21527510
P       1.96206563      -0.68754138      -1.05838442
O       1.36812470       0.94321870      -0.85244217
O       0.87259804      -1.39855562       0.09715540
C       0.23896954       0.89687790      -0.01450718
C      -0.26656894      -0.58868993       0.07604645
C       0.67685908       1.45815265       1.35886708
C      -0.82282665       1.85514012      -0.59543982
C      -1.15112244      -1.01381798      -1.12883152
C      -1.07491831      -0.87852560       1.35987639
H      -0.19820517       1.62865896       2.02256081
H       1.38077463       0.76645661       1.86602732
H       1.19517027       2.43283949       1.22868924
H      -1.02934863       1.62278626      -1.66120627
H      -1.77094811       1.79222859      -0.02055582
H      -0.46114713       2.90549864      -0.55995219
H      -2.14867267      -0.52638853      -1.08566127
H      -0.67620541      -0.75254428      -2.09768810
H      -1.30909821      -2.11396977      -1.11662186
H      -1.93022124      -0.17668816       1.45541330
H      -1.47419717      -1.91581192       1.34133260
H      -0.43659113      -0.80031141       2.26471724
C       4.72369190       0.37205537      -0.16859466
C       5.94852288      -0.09498153       0.62985381
N       7.16808454       0.60526495       0.16512711
C       7.21709013       2.01095692       0.64578107
C       7.19490171       2.95941554      -0.54670117
C       9.57353714       0.26759902      -0.32520142
C       8.38517167      -0.15045578       0.53906524
H       4.92940358       0.24992486      -1.25344190
H       4.50267170       1.44036996       0.03336142
H       6.04990104      -1.19221680       0.46352321
H       5.79369771       0.06006549       1.72266569
H       8.62518157      -0.01880811       1.61822101
H       8.24173217      -1.23936510       0.36241323
H       9.29587976       0.22419265      -1.39992945
H      10.42343712      -0.42550162      -0.14952136
H       9.90372110       1.29652527      -0.07344447
H       8.13030173       2.22527203       1.24504503
H       6.35881585       2.26402520       1.30767544
H       8.10815168       2.82221072      -1.16278603
H       7.15881109       4.01025553      -0.18959308
H       6.30123941       2.76630117      -1.17650306
