   154
 geometry
 O                     5.39210068    -1.02369364     1.70811838
 H                    -1.67343426     5.04496194    -1.69685307
 H                     2.63869551    -7.27311443     4.27378045
 Si                   -4.74132267     7.56285637    -0.00911213
 Si                   -0.39355868     6.96072387     0.18473170
 Si                    4.51447253     5.25540500     0.63095563
 H                     2.05597626    -5.91899937     0.45902657
 Si                   -3.70411790     3.98951056    -2.25047281
 Si                    0.51668597     2.38938633    -0.31349403
 Si                    4.08111401    -0.01274464     1.83726189
 H                     1.63342769    -3.20689614    -3.59665265
 Si                   -1.33003723     0.18559699    -4.58783394
 Si                    0.71092247    -2.41899890    -1.19719383
 Si                    2.25883185    -4.53186745     2.90838534
 H                    -2.41292204     6.90549573    -1.19033073
 Si                    1.09353072    -4.58718306    -5.46681747
 Si                    0.98019073    -7.08550101    -1.38059769
 Si                    0.60732674    -8.34366407     3.72257771
 O                    -0.05998318     0.31831523    -3.48485641
 O                    -3.72495460     4.08926148     4.56254417
 O                     1.72433147     4.46637890     5.75024293
 O                     1.77558213    -6.44322686    -2.68323647
 O                     2.10578512    -2.43780779    -0.23573207
 O                    -4.90305405     0.82716986     1.06295875
 O                    -1.29976942     0.55149224     4.31139805
 O                     0.72170906    -8.33841093     2.07285399
 O                     3.24335129    -5.76861014     3.49472663
 O                    -4.41791368    -2.79874432    -2.50708686
 O                    -3.36320144    -3.14103346     1.99316501
 H                     0.04353552     1.14120742    -2.92037682
 H                     2.69978666    -4.60387146    -7.21614434
 O                     2.46868677    -4.46782368     1.26371999
 O                     2.19610402     2.36293933    -0.32223456
 O                    -6.77759835     3.82243951     0.56586625
 O                    -1.25958897    -1.32426243    -5.20630844
 Si                   -3.56560608    -3.97435708    -3.29183127
 Si                   -2.89171222    -4.72699791     1.64661401
 O                    -1.87012180     4.02825354     2.58176572
 O                     3.12076338     3.21903859     3.78092716
 H                     4.16264640    -5.90985006     3.21393918
 H                    -4.15349840     6.72555274    -2.21135767
 Si                   -5.25903662     4.47272796     0.59088856
 O                    -0.35550251    -3.81821880    -5.61671435
 O                    -0.56118592    -6.41872596    -1.32851998
 O                     1.74642026    -4.12530286    -3.97951602
 Si                   -0.39244048     4.42926121     2.03326894
 O                    -2.03335019    -4.77581755     0.26719408
 H                     1.89567613    -5.49592259    -2.99206212
 H                    -1.00488723    -4.82880449     6.19343111
 Si                    4.53982644     2.99013426     2.98642551
 O                    -2.34882802    -4.55252145    -2.31912991
 O                     1.66706321    -6.77967474     0.13299384
 O                    -0.34825051     6.00549100     1.52180592
 O                     0.72901057    -4.93526229     3.32671765
 O                    -5.45309056     0.57162013    -4.08494107
 O                     2.07052561    -8.05447218     4.47125239
 O                     4.71543591     4.13080469     1.81559785
 H                    -6.90023675     8.60451435    -0.07744222
 O                    -2.47853152     0.07257565     0.25883970
 H                     5.94163310    -1.23804783     0.94196519
 H                     0.71833844    -1.00670469    -3.11108966
 O                     1.03548329    -6.24489919    -5.41654791
 O                     0.78797818    -1.19128090     4.21909182
 H                    -5.25835426    -5.66384724    -3.35364180
 O                    -4.03452419     2.59155258    -3.00640900
 O                     0.90955521    -8.72381438    -1.57804493
 H                    -4.96601467    -5.88672409     2.02290703
 O                    -0.06474412    -9.74725138     4.27807675
 H                     6.69703249     2.97521367     4.05107746
 H                     3.80580527    -1.49793792     6.09959591
 H                    -2.58984683    -3.39980336    -7.81752429
 H                    -3.96419234     4.97211789     4.87380565
 H                     2.26413187     5.23982912     5.95989726
 O                    -4.39440411     4.09669603    -0.77136368
 O                     0.00892399     3.62254501     0.65561866
 H                    -4.46206519     1.15493435     1.89755378
 H                    -0.63170183     1.23874511     4.59510434
 O                    -1.11351480    -4.57630076     5.26280434
 O                    -1.91766119    -5.20150329     2.88152195
 O                     1.98737787    -4.10523281    -6.79059681
 O                    -1.48129788     6.48466362    -0.96842230
 H                    -4.61970330     5.27758025    -4.04485241
 O                     4.51871132     1.52118104     2.24695064
 O                    -3.38377354     1.83217029     3.10760953
 O                     0.88503221     2.06383265     4.90884051
 O                     3.02595471     4.90634635    -0.06109606
 H                    -4.47780097    -2.46227230    -1.56943765
 O                    -4.42977205    -1.74874563    -0.03007016
 O                    -1.78788180    -2.19624619     4.13777670
 H                     2.66159968     3.25474773    -0.30798202
 O                    -4.42519586     3.97945481     1.91329163
 O                    -4.55206501    -5.20196422    -3.82551231
 O                    -4.22862241    -5.67580577     1.43553376
 O                    -4.30474453     5.31726148    -3.12695495
 O                     0.68510140     4.11589217     3.22636949
 H                    -2.95286749    -2.66905107     2.76805622
 O                    -2.81435628    -3.38361089    -4.62593380
 O                    -0.12406135     2.49599851    -1.84928843
 H                     2.62126352    -1.58726300    -0.09649336
 H                    -6.99109035     2.88184291     0.68836452
 O                     5.74146828     3.09991851     4.12076765
 H                     1.14751758    -7.76371239     1.37343212
 O                    -2.73020748     0.44199267    -3.76457711
 O                    -1.21033923     1.34579729    -5.77285869
 H                    -5.84358575    -0.30464977    -4.22786918
 Si                   -1.67656040    -2.85017354    -5.67741588
 O                    -0.37367756    -1.42449979    -0.47662192
 O                     0.03663964     0.99589873     0.38544181
 O                    -4.35858000     0.39506606    -1.59100449
 Si                   -1.26470817    -4.94590724    -1.17110541
 H                     2.30523759     5.58520881    -0.20632084
 H                    -1.62358242    -2.98162269     4.73168143
 H                    -2.73392695     1.28168137     3.63446638
 Si                   -0.70047806    -5.51886476     3.91475115
 O                     0.04818714    -3.91291359    -1.20307832
 O                    -5.99205183     8.56638433    -0.40627554
 O                     3.24668935    -0.00659511     0.38165514
 H                     2.39447846    -3.65456922     0.64426284
 O                     2.59570301    -3.09911612     3.64908188
 H                    -0.94649259     1.24819373    -6.69842229
 H                     1.45964842     7.33607522    -1.25408269
 Si                   -4.15815409     0.93978910    -3.12752381
 H                    -0.88765603     3.13423429    -2.08078168
 H                     6.10265136     4.48902389    -1.03393259
 O                    -3.64950941     8.21797704     1.03539481
 Si                   -0.93355207    -0.31339698     0.57117362
 O                    -0.80730383    -0.85760282     2.10567095
 O                    -3.82431290     7.21194037    -1.39886334
 O                    -0.85921823     8.51422166     0.63416000
 Si                    2.39100216    -1.54725922     4.15837843
 H                     2.86868994     0.84855712     0.00012922
 O                    -2.27630210    -2.70735033    -7.21939632
 O                    -2.03935644     4.18630994    -2.08871454
 O                     1.17019352     6.84153960    -0.46744878
 O                     2.96358727    -1.26056358     5.68807482
 O                    -5.33721875     6.12638650     0.56555769
 O                     4.46680958     6.80649526     1.21927340
 O                     5.76959206     5.19184669    -0.45413711
 Si                   -3.36341363     3.49770376     3.06135098
 Si                   -4.09869727    -0.10477958    -0.05362761
 H                    -2.72982978     8.54112422     0.92667542
 H                    -0.40035275     9.11224198     1.24628312
 Si                    1.63160962     3.49967884     4.41332103
 Si                   -0.77059392    -0.94034436     3.74117982
 H                     5.18106105     7.45704566     1.26914090
 O                    -0.44501507    -7.10487546     4.21098922
 O                     1.07542416    -1.88420206    -2.72809769
 H                     1.29062447     1.46674692     5.56514658
 O                     3.15351584    -0.59626227     3.05799301
 H                    -4.17645049    -2.31633030     0.76025555
 H                     0.20358018   -10.65887749     4.10776455
 H                     0.60636533    -9.38928759    -0.94341737
 H                     1.19095350    -6.77311925    -4.60297885
 Hg                    6.67320533     2.55924977    -3.15395809
