17

Si      -0.00036282       0.00027971       0.00004802
C      -0.92347692      -0.17172263      -1.62419208
C       0.88866461       1.65179461       0.04296850
C       1.25218574      -1.38765262       0.15670559
C      -1.21776262      -0.09214048       1.42448202
H      -1.45113486      -1.12740193      -1.67503453
H      -1.66093820       0.62615851      -1.74185284
H      -0.23600182      -0.12182621      -2.47225589
H       1.60562403       1.73169548      -0.77796052
H       0.18111411       2.47981416      -0.04684087
H       1.43587612       1.77733619       0.98059525
H       1.80546766      -1.31150784       1.09607426
H       0.76026605      -2.36327557       0.13446795
H       1.97488926      -1.35689810      -0.66251199
H      -0.70477187       0.00504578       2.38454809
H      -1.96006664       0.70712911       1.35751199
H      -1.75017185      -1.04652820       1.42294704
