8

         C      0.757365     -0.016202      0.055794 
         C     -0.757365      0.016202     -0.055794 
         H      1.193385     -0.455495     -0.866087 
         H      1.057324     -0.632368      0.929477 
         H      1.147272      1.015172      0.186936 
         H     -1.057324      0.632369     -0.929477 
         H     -1.193386      0.455494      0.866088 
         H     -1.147271     -1.015172     -0.186937 
