9

         C     -0.974552     -0.325628      0.034732 
         C      0.525905     -0.084849     -0.024996 
         O      0.782175      1.291295     -0.003161 
         H     -1.180045     -1.416759      0.017520 
         H     -1.391834      0.104839      0.969751 
         H     -1.470787      0.148236     -0.838703 
         H      1.009530     -0.573904      0.849745 
         H      0.930480     -0.530453     -0.960942 
         H      1.769128      1.387223     -0.043946 
