6

         C     -0.358188     -0.012927     -0.001664 
         O      0.910021     -0.114726     -0.582152 
         H     -1.128475     -0.232976     -0.769158 
         H     -0.521791      1.016626      0.384452 
         H     -0.460243     -0.745796      0.827986 
         H      1.558676      0.089799      0.140536 
