    37
 geometry
 O                     0.58736945    -0.75401191    -0.05197056
 P                    -0.14278468     0.39051512    -1.05723312
 O                     0.98759486     1.63474464    -1.09659769
 O                    -1.08047268     1.16309285     0.11199225
 C                     0.87927579     2.53913369     0.05730219
 C                    -0.65920996     2.54335683     0.36794720
 C                     1.73015920     1.97260570     1.20008084
 C                     1.43082749     3.88968603    -0.39092551
 C                    -1.46227434     3.44852568    -0.57376202
 C                    -1.00294978     2.85319888     1.82282585
 H                     1.80149546     2.69060741     2.03079620
 H                     1.32247406     1.02697539     1.57945149
 H                     2.74634042     1.78168323     0.82377346
 H                     0.95758885     4.23398143    -1.31962644
 H                     1.26782793     4.64697918     0.39184584
 H                     2.51454054     3.80964716    -0.56466945
 H                    -1.29875317     4.51221365    -0.34582761
 H                    -1.19623125     3.27298198    -1.62688975
 H                    -2.53312667     3.23006360    -0.44823812
 H                    -0.63333406     3.85329908     2.09848841
 H                    -2.09523676     2.84534025     1.95566964
 H                    -0.56768670     2.11466682     2.50846834
 C                     0.70953470    -2.10465480    -0.53916207
 C                    -0.21437438    -3.02010769     0.26273807
 N                    -0.11055805    -4.41654830    -0.16082624
 C                     1.08668201    -5.06728546     0.36397559
 H                    -2.19505200    -4.71573951    -0.25131652
 H                     1.16085078    -6.08911803    -0.03957567
 C                    -1.30320544    -5.17529341     0.20158393
 H                     0.45137002    -2.16330201    -1.61125468
 H                     1.76647955    -2.39078922    -0.42913917
 H                    -1.24968055    -2.68267342     0.09525507
 H                    -0.00578587    -2.89056225     1.34920686
 H                    -1.46619199    -5.23242177     1.30236998
 H                     1.08365725    -5.13685485     1.47620891
 H                     1.99183362    -4.52073361     0.06253620
 H                    -1.21605954    -6.20592061    -0.17706163
