40
Ru4
Ru    0.000000    0.000000    0.000000
Ru    0.000000    0.000000    7.582757
Ru    0.000000    0.000000    3.791378
Ru    0.000000    3.791378    0.000000
Ru    0.000000    3.791378    7.582757
Ru    0.000000    3.791378    3.791378
Ru    3.791378    0.000000    0.000000
Ru    3.791378    0.000000    7.582757
Ru    3.791378    0.000000    3.791378
Ru    3.791378    3.791378    0.000000
Ru    3.791378    3.791378    7.582757
Ru    3.791378    3.791378    3.791378
Ru    0.000000    1.895689    1.895689
Ru    0.000000    1.895689    5.687068
Ru    0.000000    5.687068    1.895689
Ru    0.000000    5.687068    5.687068
Ru    3.791378    1.895689    1.895689
Ru    3.791378    1.895689    5.687068
Ru    3.791378    5.687068    1.895689
Ru    3.791378    5.687068    5.687068
Ru    1.895689    0.000000    1.895689
Ru    1.895689    0.000000    5.687068
Ru    1.895689    3.791378    1.895689
Ru    1.895689    3.791378    5.687068
Ru    5.687068    0.000000    1.895689
Ru    5.687068    0.000000    5.687068
Ru    5.687068    3.791378    1.895689
Ru    5.687068    3.791378    5.687068
Ru    1.895689    1.895689    0.000000
Ru    1.895689    1.895689    7.582757
Ru    1.895689    1.895689    3.791378
Ru    1.895689    5.687068    0.000000
Ru    1.895689    5.687068    7.582757
Ru    1.895689    5.687068    3.791378
Ru    5.687068    1.895689    0.000000
Ru    5.687068    1.895689    7.582757
Ru    5.687068    1.895689    3.791378
Ru    5.687068    5.687068    0.000000
Ru    5.687068    5.687068    7.582757
Ru    5.687068    5.687068    3.791378
