37
C10H22NO3P optimized with ADF in AMS.
O        3.33194247398207       0.30076433101994       0.18997979952726
P        2.23021382824250      -0.17635009090217      -0.93134389467245
O        1.15541769016428       1.06054126214409      -1.02098847839883
O        1.28509070869714      -1.06367367218749       0.07655904304870
C        0.15386592764494       1.01230916883653       0.02556898325867
C       -0.04223154538884      -0.51587632398712       0.24191159105256
C        0.68996167110640       1.73050668366770       1.25612096866147
C       -1.07612090783917       1.72591222679348      -0.49879943653751
C       -0.93499380386919      -1.15443878503550      -0.81287377758440
C       -0.51951450042916      -0.88725938094659       1.63161892308749
H       -0.08611528968217       1.82662045368725       2.01796006188670
H        1.54872397254546       1.21389551523541       1.68228365222653
H        1.00690871012012       2.73257091932826       0.96345762599832
H       -1.38368287455989       1.33381636719529      -1.46683744803439
H       -1.90585788910711       1.62331790082613       0.20470992615627
H       -0.86006088555672       2.78906501908504      -0.61328306786650
H       -1.98060346311367      -0.87460461983188      -0.67392119364968
H       -0.62647709943502      -0.86686817472972      -1.81930413276350
H       -0.85435993171754      -2.23871335969860      -0.72763229487498
H       -1.49062997471260      -0.43003095794059       1.83620009435313
H       -0.63327131156432      -1.96982228623539       1.70217078024414
H        0.18934079777063      -0.56755742254274       2.39344924495372
C        4.63858536058558       0.63682574665375      -0.27581703320024
C        5.65910744030813      -0.04189930889103       0.61758735886284
N        7.01982259519217       0.31706240004214       0.26427137618113
C        7.37756692401471       1.63632439099486       0.74348147171392
H        7.72804477238245      -1.64758560778983       0.33878490246662
H        8.38576128777628       1.88714930753745       0.40860091148686
C        7.96417428231604      -0.66562241945836       0.75210192179217
H        4.77932917223706       0.31184335885120      -1.31232695585508
H        4.74176986617907       1.72438452784939      -0.24810683431909
H        5.54094432364377      -1.12140816276256       0.49865019174429
H        5.42773015484238       0.18977270443748       1.67238574607512
H        7.96883505802493      -0.74599892474861       1.85392689429902
H        7.35414508244829       1.70410721163236       1.84618401053794
H        6.70072304898764       2.39160952378477       0.34350964763216
H        8.97249935776333      -0.39674612191434       0.43094178050959
