18

         C      1.477803     -0.035980     -0.042615 
         C      0.651988     -1.327247      0.018404 
         C     -0.729081     -1.128064     -0.618808 
         C     -1.477803      0.035980      0.042615 
         C     -0.651988      1.327247     -0.018404 
         C      0.729081      1.128064      0.618808 
         H      2.445462     -0.194227      0.480279 
         H      1.698574      0.216431     -1.103182 
         H      1.192324     -2.134230     -0.521633 
         H      0.532315     -1.644369      1.077822 
         H     -0.613068     -0.927493     -1.706726 
         H     -1.324003     -2.059561     -0.503885 
         H     -1.698574     -0.216431      1.103182 
         H     -2.445462      0.194227     -0.480279 
         H     -1.192324      2.134230      0.521633 
         H     -0.532315      1.644369     -1.077822 
         H      0.613068      0.927493      1.706726 
         H      1.324003      2.059561      0.503885 
