23
XYZ file generated by Avogadro.
N     -0.19971    0.15132    0.05325
C      1.25245   -0.04544    0.10751
C      1.76257    0.10196    1.53061
O      1.10782    0.33713    1.80065
O      2.05677   -1.82363    7.27461
C     10.01269    0.01935    2.51323
C      1.95310    0.94211   -0.83856
O      8.50229   -0.19808    6.38037
N      5.90132    0.38750    4.19546
C      7.36224    0.36986    4.23763
C      7.81403    0.70148    5.64435
N      3.07940   -0.12337    1.81451
C      3.64362   -0.00039    3.16256
C      5.17327   -0.05145    3.12661
O      5.74715   -0.47113    2.13092
C      3.04920   -1.11526    4.07325
O      7.54533    1.78846    6.13290
C      9.48907    1.38393    2.98051
C      3.48265   -1.07161    5.54549
C     10.29539    1.88615    4.18553
C      7.94994    1.37358    3.20061
C      2.77757   -2.13513    6.33825
O      2.94761   -3.43621    6.02024
