37
C10H22NO3P optimized with ADF in AMS.
O        3.33471401764782       0.21565103073899       0.11749661051938
P        2.21400222367017      -0.20271444437113      -0.98809623748148
O        1.16984868022628       1.05136222101797      -1.03047996277724
O        1.26790131853741      -1.09018947246513       0.00342563475519
C        0.17926497670118       1.00949525963944       0.02924594380682
C       -0.04400182180830      -0.51881217276911       0.22525510522976
C        0.74552929524601       1.69946637262881       1.26119795820863
C       -1.04367504735576       1.75360229004945      -0.46462129062470
C       -0.98288352888035      -1.11967009638753      -0.80927893193405
C       -0.48538637258906      -0.90291107275425       1.62203455841851
H       -0.01841274218573       1.79254115445966       2.03413184249335
H        1.60130588230762       1.16437062821968       1.66867012376301
H        1.06998798336181       2.70259389235097       0.98202856222548
H       -1.37745739841899       1.38240306618741      -1.43177470510783
H       -1.86173403689447       1.65365810881976       0.25133650855184
H       -0.81074290147578       2.81442305109677      -0.56324075655975
H       -2.01338907327016      -0.80934133462554      -0.63482206588415
H       -0.69833032076553      -0.83145335054359      -1.82212814171357
H       -0.93607281546936      -2.20649581005969      -0.73545994837550
H       -1.43785267116015      -0.42615505201342       1.86145822772021
H       -0.62550735693463      -1.98288569320988       1.67819250314664
H        0.25005698915418      -0.61065252699240       2.36909428057566
C        4.63774896791047       0.58194161754782      -0.32770670377269
C        5.65433488824412      -0.07040937930889       0.58789571959790
N        7.01561813524024       0.31577739376504       0.27009453742178
C        7.32033531354070       1.66109149081671       0.71772196132392
H        7.76843469512273      -1.62709414938568       0.45338816263838
H        8.33973373267071       1.92086782745720       0.42911532980499
C        7.96347615658420      -0.62396861072089       0.83472373568311
H        4.79920356060608       0.25487698126657      -1.36007102853945
H        4.71598905231570       1.67070326171315      -0.30334133652775
H        5.56527312703886      -1.15278859737957       0.47271415339404
H        5.39643115271119       0.16408555805729       1.63530406086534
H        7.91771203290898      -0.65879142594702       1.93654498036215
H        7.23711195669991       1.76244028073398       1.81339959719918
H        6.65030599574862       2.38691334542401       0.25809085630335
H        8.97771098301326      -0.33998824305696       0.54964251528953
