2
Nh2 optimized with Band in AMS.
 Nh      -0.00000000000000       0.00000000000000       0.00000000000000
 Nh       1.71940522067910      -0.99269906700512      -3.01416349481224
VEC1       3.43881044135819       0.00000000000000      -0.00000000000000
VEC2      -1.71940522067910       2.97809720101537       0.00000000000000
VEC3      -0.00000000000000      -0.00000000000000       6.02832698962448
