1
Mc optimized with Band in AMS.
 Mc       0.00000000000000       0.00000000000000       0.00000000000000
VEC1      -2.17656423878328       2.17656423878328       2.17656423878328
VEC2       2.17656423878328      -2.17656423878328       2.17656423878328
VEC3       2.17656423878328       2.17656423878328      -2.17656423878328
