15
 ADF: blyp_tz2p_solvent_cosmo-chcl3
S       0.00000000       0.00000000      -1.00091287
C       1.40907078      -0.00000000       0.21368876
H       1.33129502       0.89420134       0.84075198
H       1.33129502      -0.89420134       0.84075198
C       2.71912072      -0.00000000      -0.56492228
H       2.83977839       0.89517791      -1.17756572
H       2.83977839      -0.89517791      -1.17756572
C      -1.40907078       0.00000000       0.21368876
H      -1.33129502      -0.89420134       0.84075198
H      -1.33129502       0.89420134       0.84075198
C      -2.71912072       0.00000000      -0.56492228
H      -2.83977839       0.89517791      -1.17756572
H      -2.83977839      -0.89517791      -1.17756572
Cl       4.14889139      -0.00000000       0.60336700
Cl      -4.14889139       0.00000000       0.60336700
