2
Ts2 optimized with Band in AMS.
 Ts      -0.00000000000000       0.00000000000000       0.00000000000000
 Ts       1.99269719253562      -1.15048426052385      -3.22924628653417
VEC1       3.98539438507121       0.00000000000000      -0.00000000000000
VEC2      -1.99269719253561       3.45145278157153      -0.00000000000000
VEC3      -0.00000000000000      -0.00000000000000       6.45849257306834
