4
H2OPb optimized with ADF in AMS.
Pb       0.00000000000000       0.00000000000000       2.06423781412215
H       -0.00000000000000      -0.79954865768051      -0.88833180801827
H        0.00000000000000       0.79954865768051      -0.88833180801827
O        0.00000000000000      -0.00000000000000      -0.28757419808560
