   154
 geometry
 O                    -4.11135210    -1.76273313    -3.94084239
 H                    -0.35139941     5.77918126     2.05311337
 H                     3.20167002    -9.35092730    -5.50908745
 Si                    2.83285130     8.75621287     1.64545576
 Si                   -1.12336759     7.66851761    -0.34206391
 Si                   -4.97949053     3.94089381    -1.87081413
 H                    -0.29811666    -6.21825674    -1.66264034
 Si                    1.51739994     4.94427319     3.49736453
 Si                   -1.04069273     2.39750768    -0.11093316
 Si                   -2.93225214    -0.66125945    -3.58103146
 H                    -2.27325456    -3.38128979     2.23116419
 Si                   -1.06021632     0.40410026     4.75587482
 Si                   -0.33544814    -2.42146299     0.49785626
 Si                    0.45785607    -4.62162968    -3.92034808
 H                     0.22243435     7.86166666     1.82247966
 Si                   -2.69194901    -4.73728015     4.30390651
 Si                   -0.19305868    -7.15382383     0.65672951
 Si                    3.41176268    -8.18991452    -3.17460024
 O                    -1.51345344     0.52463570     3.14335511
 O                     4.08717967     5.28443889    -2.77675852
 O                    -0.58452327     4.88124099    -6.24542047
 O                    -1.55520721    -6.44088683     1.27000839
 O                    -1.32122763    -2.75482245    -0.81524168
 O                     4.64796862     2.12539022     1.69977329
 O                     3.02890722     1.21912829    -4.17651098
 O                     1.95993810    -8.11995604    -2.39161513
 O                     0.09242231    -5.93220422    -4.85862465
 O                     3.29025031    -2.27448730     4.15058635
 O                     4.39741735    -2.24043556    -0.21555461
 H                    -1.50731993     1.22682143     2.46287792
 H                    -5.14709913    -4.54425712     5.17476443
 O                    -0.40922655    -4.65020575    -2.49584926
 O                    -2.52180750     1.74245889    -0.49538035
 O                     5.49416517     5.28083173     1.93658458
 O                    -0.91223292    -1.17029933     5.23653421
 Si                    2.39058764    -3.58646103     4.60254903
 Si                    4.38174952    -3.92178161    -0.18717570
 O                     1.59364836     4.88850400    -1.74348732
 O                    -2.16591487     3.15941309    -4.84156817
 H                    -0.08782363    -6.76233735    -5.29247147
 H                     1.54229232     7.73425919     3.59678622
 Si                    3.98076442     5.72582308     1.41620984
 O                    -1.67260028    -3.76621591     5.20416247
 O                     1.08459932    -6.25836123     1.30125207
 O                    -2.56352283    -4.16114363     2.73645950
 Si                   -0.05589663     4.97398703    -1.92319374
 O                     3.12574588    -4.44552196     0.75981734
 H                    -2.10637118    -5.75779064     1.68459937
 H                     5.22258057    -3.94234985    -5.10869896
 Si                   -3.63416899     2.44957774    -4.51949377
 O                     2.00201442    -4.40101808     3.18902992
 O                    -0.12382379    -6.92307870    -0.99999928
 O                    -0.62241063     6.40702490    -1.29342929
 O                     2.09127473    -4.63941981    -3.57979875
 O                     2.79473641     1.79110786     6.04666759
 O                     3.27781643    -8.91105705    -4.66753557
 O                    -4.34758848     3.26208809    -3.24754766
 H                     4.29257329    10.72093375     2.53886081
 O                     2.55287895     0.66490468     0.72432071
 H                    -4.76313792    -2.43662201    -4.11623153
 H                    -1.49461635    -1.06339487     2.31513029
 O                    -2.19524115    -6.31526239     4.33759759
 O                     1.18083462    -0.76437733    -4.26976166
 H                     3.68602767    -5.17304601     6.22132208
 O                     1.63025377     3.46001637     4.20489702
 O                    -0.05915920    -8.75817462     1.03441451
 H                     6.63895492    -4.84687760     0.72928214
 O                     4.55984097    -8.98844544    -2.27632161
 H                    -5.16574314     2.49268019    -6.63144006
 H                    -0.05426960    -1.07241868    -7.58427392
 H                    -0.66991635    -2.70632461     8.43701235
 H                     4.57913194     5.76735207    -3.43552767
 H                    -0.54782386     5.46871641    -6.99494094
 O                     2.81116863     5.20017152     2.48755197
 O                    -0.72432338     3.75467856    -1.00667700
 H                     5.11844369     2.94712237     1.55858766
 H                     3.48061436     2.05721542    -4.27198694
 O                     4.64400621    -4.09315840    -4.36310317
 O                     4.09551119    -4.41307390    -1.74943923
 O                    -4.24700655    -4.59603252     4.86616258
 O                    -0.42990664     7.53000575     1.16579722
 H                     1.51803358     6.43842301     5.59501720
 O                    -3.36769767     0.88235052    -4.02457898
 O                     3.40153411     2.89408563    -1.65639488
 O                     0.52439581     2.69819111    -5.01348781
 O                    -4.01045926     5.15569824    -1.31426262
 H                     3.75196313    -1.58758508     3.64677035
 O                     4.39640078    -0.60908102     2.11310729
 O                     3.71720428    -1.38579766    -3.56573378
 H                    -3.47014259     1.97780835    -0.59506741
 O                     3.69376254     5.09952187    -0.08674919
 O                     3.21732693    -4.58285760     5.63845424
 O                     5.82710687    -4.48965308     0.37921158
 O                     1.51896423     6.14108907     4.68539943
 O                    -0.42845246     4.70004500    -3.51050155
 H                     4.24215318    -1.44384201    -0.72732333
 O                     0.95249554    -3.11557849     5.30488567
 O                    -1.01133476     2.80160685     1.51247968
 H                    -1.95242390    -2.18144695    -1.30910421
 H                     6.38540331     5.20021653     2.26931239
 O                    -4.61414384     2.48186420    -5.85386913
 H                     1.16785043    -7.85063500    -1.88429275
 O                     0.43528173     1.14065756     4.82819724
 O                    -2.14938374     1.20553884     5.71483307
 H                     3.30268764     1.62551168     6.83693136
 Si                   -0.56713777    -2.69672758     5.82870834
 O                     0.70594298    -1.21075795     0.01588969
 O                     0.18296923     1.32272698    -0.41255377
 O                     2.75576511     1.21047182     3.37595569
 Si                    1.72138271    -4.76183848     1.59874425
 H                    -3.42223050     5.86314874    -1.03112805
 H                     4.18515940    -2.20831338    -3.76627290
 H                     3.33251087     1.93991889    -1.60624369
 Si                    3.69488868    -4.94241225    -3.27074384
 O                     0.57535445    -3.69498199     1.00064458
 O                     3.75123279     9.99379155     2.24226160
 O                    -2.64124506    -0.62127315    -1.92841828
 H                    -0.83392039    -4.06412073    -1.82028161
 O                     0.12275899    -3.17089375    -4.67055090
 H                    -2.79423772     1.62708499     6.27633405
 H                    -3.69286297     7.81678197     0.02132671
 Si                    1.91212530     1.86660475     4.65176874
 H                    -0.70565882     3.51372307     2.10908142
 H                    -5.56937604     2.18815040    -0.08051736
 O                     1.99820649     9.18562445     0.28820471
 Si                    1.41943193     0.21757804    -0.39856863
 O                     2.17198682     0.10298938    -1.88658330
 O                     1.68358661     8.23979624     2.77858282
 O                    -0.65698333     9.12455075    -1.02694389
 Si                   -0.08124988    -1.55937268    -5.02391081
 H                    -2.55411278     0.07224701    -1.24179599
 O                    -0.63425680    -2.67045025     7.48528160
 O                     0.11812883     5.11972593     2.59598170
 O                    -2.78813638     7.62361372    -0.22099209
 O                    -0.05893938    -1.26120212    -6.64960088
 O                     3.75073402     7.37941229     1.39616446
 O                    -6.52413044     4.48656345    -2.14592545
 O                    -5.07354774     2.71037903    -0.71245451
 Si                    3.21658581     4.53394099    -1.58178839
 Si                    3.62134857     0.86297472     1.99847909
 H                     1.30399275     9.30786549    -0.36653938
 H                    -0.67855279     9.91906243    -1.55846949
 Si                   -0.65547228     3.85772730    -4.94459082
 Si                    2.54404796    -0.22297058    -3.49557042
 H                    -7.39334240     4.80732059    -2.37188658
 O                     3.88631564    -6.58377489    -3.38119205
 O                    -1.28927855    -1.82354823     1.72545063
 H                     1.21887776     2.03829296    -4.92432266
 O                    -1.51726094    -1.06562803    -4.35031187
 H                     4.65155710    -1.36349297     1.55656367
 H                     5.19022860    -9.42917959    -1.71424931
 H                     0.06299438    -9.69246926     1.17834178
 H                    -1.83941004    -7.17751220     4.13610728
 Rn                   -5.60656513    -1.06424929     1.62718127
