   154
 geometry
 O                    -3.16436132    -1.66846915    -4.59674426
 H                    -0.37385182     5.69261117     2.20526076
 H                     3.09440250   -10.18239306    -4.79733177
 Si                    2.27989164     9.00204877     1.90691496
 Si                   -1.44167605     7.51034892    -0.16906509
 Si                   -4.84778138     3.47551057    -2.20620837
 H                    -0.44884448    -6.20842059    -1.73864655
 Si                    1.61295270     4.94455749     3.54406242
 Si                   -0.72729656     2.43079780    -0.19864783
 Si                   -2.09422353    -0.51330649    -4.11194196
 H                    -2.44364658    -3.18415557     2.09025944
 Si                   -0.89532622     0.48537027     4.72686894
 Si                   -0.23495434    -2.32603113     0.44369648
 Si                    0.84685096    -4.64951082    -3.98428803
 H                    -0.21502539     7.80125655     2.04132064
 Si                   -3.09082413    -4.36307574     4.20956214
 Si                   -0.63724958    -7.04972565     0.62733725
 Si                    3.02878216    -8.80684987    -2.59077503
 O                    -1.36953743     0.61058984     3.12904615
 O                     4.11427421     6.11468416    -2.66584566
 O                    -1.32011644     6.12466616    -5.80791229
 O                    -1.95634735    -6.24198692     1.19267975
 O                    -1.05716934    -2.60672308    -0.97957346
 O                     5.12917973     1.58576768     1.88562847
 O                     4.05492318     1.01897421    -3.68453414
 O                     1.48143783    -8.56111545    -2.09164493
 O                     0.28171075    -5.76102655    -5.06040051
 O                     3.16936499    -2.63401726     4.35544240
 O                     4.61389375    -2.81173941    -0.00560679
 H                    -1.38237174     1.27805238     2.42412763
 H                    -5.49649567    -3.75314219     4.98104606
 O                    -0.13187406    -4.57742441    -2.64301999
 O                    -2.12527567     1.69657874    -0.71101312
 O                     5.42533851     6.07917615     1.96165946
 O                    -0.86672673    -1.08311105     5.22871232
 Si                    2.12167627    -3.85873857     4.69471004
 Si                    4.37887512    -4.46624543     0.04496495
 O                     1.68217614     5.25425060    -1.80645069
 O                    -1.98983377     3.59225579    -5.11240196
 H                    -0.04540027    -6.46030436    -5.61131210
 H                     1.17636735     7.75706566     3.82568302
 Si                    3.85924466     6.18440989     1.46788139
 O                    -1.96848511    -3.53574481     5.11583553
 O                     0.67706445    -6.24911295     1.29155892
 O                    -2.82775879    -3.88424404     2.63707601
 Si                    0.03826348     5.14382333    -1.92155294
 O                     2.98038768    -4.78303666     0.86637118
 H                    -2.48284440    -5.54883450     1.60748736
 H                     5.72740686    -5.13493059    -4.71554934
 Si                   -3.21500656     2.49673802    -4.91943014
 O                     1.75126070    -4.56950723     3.23237170
 O                    -0.48106166    -6.86190422    -1.02160644
 O                    -0.69963830     6.42638383    -1.16513194
 O                     2.38914172    -5.05538999    -3.52779242
 O                     2.87188767     1.89016282     6.13821986
 O                     3.08647529    -9.67045127    -4.00031335
 O                    -4.09436192     2.97713232    -3.59113244
 H                     3.57858162    11.00881118     2.91031866
 O                     2.80685558     0.55093072     0.92738407
 H                    -3.75273292    -2.37113189    -4.84211949
 H                    -1.47951680    -1.00111832     2.20051334
 O                    -2.86158692    -5.98939015     4.32878168
 O                     2.08425945    -0.79814071    -4.20877772
 H                     3.14659366    -5.60927921     6.31551246
 O                     1.84461297     3.43221480     4.14700683
 O                    -0.64211400    -8.64750432     1.01896794
 H                     6.38175180    -5.63538315     1.20566807
 O                     3.91949105    -9.58718655    -1.43650297
 H                    -4.70766760     2.40690569    -7.04156157
 H                     1.31740553    -1.27718469    -7.64559819
 H                    -0.95568887    -2.68167250     8.38711747
 H                     4.54958314     6.71698750    -3.25468261
 H                    -1.63226399     6.91830230    -6.22190228
 O                     2.83836663     5.40262596     2.53069428
 O                    -0.43734552     3.80040815    -1.07398999
 H                     5.81298485     2.21185963     1.68502822
 H                     4.44634158     1.77002891    -4.11509682
 O                     5.04367771    -5.24184090    -4.06691750
 O                     4.20016328    -4.98422786    -1.52110903
 O                    -4.61373173    -3.96093624     4.70617919
 O                    -0.78743439     7.41612373     1.35258026
 H                     1.56831352     6.30573144     5.72534717
 O                    -2.59982376     0.98858201    -4.60650909
 O                     3.74734974     3.54318201    -1.88343200
 O                     0.54560381     4.16132542    -5.88007417
 O                    -4.06402396     4.76569636    -1.55356481
 H                     3.68029716    -1.95866922     3.89824430
 O                     4.38969739    -0.99388672     2.36812316
 O                     4.30129870    -1.58242440    -2.89932818
 H                    -3.08675131     1.80027741    -0.83056584
 O                     3.67478922     5.57788348    -0.05608163
 O                     2.77342263    -4.96333650     5.73100089
 O                     5.66454081    -5.19561414     0.76795153
 O                     1.53761691     6.03811685     4.81282636
 O                    -0.40914032     5.02099008    -3.50283412
 H                     4.60903268    -2.00476051    -0.51698889
 O                     0.70903140    -3.25672206     5.32768764
 O                    -0.86829652     2.83674886     1.40977092
 H                    -1.55252681    -2.04690791    -1.60523588
 H                     6.33192243     6.05122255     2.23946537
 O                    -4.17220685     2.45186127    -6.26024214
 H                     0.68206372    -8.15231500    -1.73009295
 O                     0.63141903     1.13979873     4.78905147
 O                    -1.91706718     1.36561795     5.68010533
 H                     3.32883077     1.79426113     6.96408825
 Si                   -0.75342040    -2.64499602     5.79794164
 O                     0.86899193    -1.13443918     0.10555750
 O                     0.55784117     1.41124199    -0.36378488
 O                     3.04479600     1.12280108     3.53546306
 Si                    1.50988702    -4.87044453     1.62899709
 H                    -3.57939833     5.50623959    -1.18561400
 H                     4.76493904    -2.41218496    -2.96831736
 H                     3.85692861     2.60671846    -2.02857882
 Si                    3.84615733    -5.65127044    -3.00156970
 O                     0.56651391    -3.64524056     0.99975677
 O                     3.10089411    10.26179364     2.57308800
 O                    -2.01250027    -0.45434533    -2.44718209
 H                    -0.55077945    -3.99073039    -1.98206578
 O                     0.87194474    -3.12709846    -4.65278045
 H                    -2.52929646     1.83060294     6.23505942
 H                    -3.97746938     7.17700301     0.16869050
 Si                    2.10875647     1.87041666     4.68016355
 H                    -0.60110469     3.50806683     2.05933451
 H                    -5.24348288     1.53473645    -0.58606264
 O                     1.35837619     9.46680101     0.62907791
 Si                    1.71324403     0.23228060    -0.26565364
 O                     2.52743268     0.04532575    -1.69270862
 O                     1.23911130     8.29805968     3.03091481
 O                    -1.23570156     9.06005143    -0.74622523
 Si                    0.88642651    -1.53202435    -5.09983738
 H                    -2.01028473     0.18304106    -1.71140068
 O                    -0.88446273    -2.64281809     7.44268747
 O                     0.18142335     5.06839373     2.69582928
 O                    -3.06806251     7.16496110    -0.11143342
 O                     1.17545590    -1.35314891    -6.71109680
 O                     3.29941006     7.75138060     1.51451683
 O                    -6.43293730     3.82960913    -2.50401893
 O                    -4.80640431     2.19440534    -1.11702180
 Si                    3.32895283     5.11461455    -1.61505553
 Si                    3.86740732     0.57573635     2.20712088
 H                     0.66231644     9.55916748    -0.01978265
 H                    -1.39304758     9.87530243    -1.20972371
 Si                   -0.78808716     4.73400022    -5.09724425
 Si                    3.25271791    -0.32121212    -3.13795208
 H                    -7.32759313     4.05168709    -2.72753168
 O                     3.67144377    -7.28454280    -2.85035022
 O                    -1.28492646    -1.73201096     1.58641243
 H                     1.29722787     3.78208729    -6.31637090
 O                    -0.59028220    -0.89222132    -4.69516281
 H                     4.64494272    -1.78905022     1.88740679
 H                     4.39744300   -10.01308166    -0.73807446
 H                    -0.59881287    -9.58117223     1.17687699
 H                    -2.65918905    -6.91348604     4.25602810
 Rn                   -7.75422121    -1.63748802     0.63748537
