1
Lv optimized with Band in AMS.
 Lv       0.00000000000000       0.00000000000000       0.00000000000000
VEC1       3.64666288343231       0.00000000000000       0.00000000000000
VEC2       0.00000000000000       3.64666288343231      -0.00000000000000
VEC3       0.00000000000000      -0.00000000000000       3.64666288343231
