   153
 geometry
 O                     4.69105051    -1.70976384    -3.64000321
 H                    -1.51939631     5.92454420    -1.23117618
 H                     4.24310352    -8.42724514    -0.01661107
 Si                   -1.20532526     9.72476406     1.08031652
 Si                    1.04256118     6.94634949    -1.61497981
 Si                    4.00019379     4.12958768    -4.15139196
 H                     0.74644430    -6.48224503    -1.26259358
 Si                   -3.41747402     5.32336250    -0.00164145
 Si                    0.39581129     2.23289244    -1.18831785
 Si                    4.04238445    -0.86577422    -2.36555493
 H                    -2.31697039    -3.23757592    -3.20305817
 Si                   -4.30428847     0.64044764    -2.07940216
 Si                   -0.63515457    -2.59246589    -1.10010848
 Si                    3.21377834    -5.43555902    -0.13965698
 H                    -1.03937567     8.15072061    -1.13540166
 Si                   -4.36458118    -3.89388709    -4.20252519
 Si                   -1.56310188    -7.14467968    -1.48743895
 Si                    2.37709724    -9.51210456     0.97669106
 O                    -2.63771479     0.44195517    -2.30340825
 O                     1.52391899     5.86740496     4.51631003
 O                     6.15241065     4.65404503     1.10753678
 O                    -1.93804207    -6.37534688    -2.87168524
 O                     0.89824750    -2.84187242    -1.75420121
 O                    -1.98678760     1.90713844     4.05040189
 O                     3.39897062     0.56684911     3.21712586
 O                     1.33186877    -9.27952645    -0.24881887
 O                     4.35046496    -6.38928323    -0.91852771
 O                    -4.85363034    -2.25687703     2.33210232
 O                     0.14186572    -3.63137076     4.03702781
 H                    -2.02779824     1.21823545    -2.18794193
 H                    -4.71528044    -1.95454727    -5.58361717
 O                     1.85834819    -5.18317459    -1.08149276
 O                     1.41222752     1.86304461    -2.47212847
 O                    -3.19344771     7.30143640     3.77071638
 O                    -4.93633073    -0.84978729    -2.00885287
 Si                   -4.91035525    -3.42726716     1.17836953
 Si                   -0.31006963    -5.10231247     3.42614931
 O                     1.23564628     4.93609598     1.97047475
 O                     5.20532476     2.79963391    -0.65550605
 H                     4.72084438    -6.29560620    -1.80821838
 H                    -2.19834430    10.00798289    -1.08181599
 Si                   -2.14674946     6.95659440     2.55108223
 O                    -5.29627478    -3.27124274    -2.96911929
 O                    -2.20582951    -6.33979295    -0.13911436
 O                    -2.79997579    -4.01326815    -3.61476090
 Si                    1.87786069     4.60276968     0.50078365
 O                    -1.17116228    -4.98527082     2.03056532
 H                    -2.23182985    -5.48223662    -3.20788407
 H                     4.36832973    -6.98763564     3.83795888
 Si                    5.48565917     2.07316401    -2.10412122
 O                    -3.44513482    -4.14822170     0.95513392
 O                     0.09914039    -7.24557666    -1.23556064
 O                     1.59233856     5.86738543    -0.52336331
 O                     2.83294006    -6.28438694     1.18664837
 O                    -6.08735631     2.52544785     1.28910679
 O                     3.96429200    -9.20077863     0.51092686
 O                     4.73073898     2.97464479    -3.25448585
 H                    -1.77187230    11.93264067     1.86650391
 O                    -1.23613052     0.40284881     1.90251284
 H                     4.70717634    -1.53423244    -4.58945533
 H                    -2.02907867    -1.06533528    -2.35768732
 O                    -4.83544307    -5.39156171    -4.67582897
 O                     3.69052991    -1.56850654     1.54475123
 H                    -6.30276516    -4.83132728     2.50249241
 O                    -3.96957053     3.83292939     0.30695391
 O                    -2.14581351    -8.69436554    -1.48531357
 H                    -1.23863667    -5.76017307     5.51175776
 O                     2.30191499   -11.06321897     1.57081478
 H                     7.69762470     1.80524205    -3.02847454
 H                     6.85486822    -2.86030954     0.43433936
 H                    -8.10837650    -2.28076917    -1.30950717
 H                     2.26193119     6.48673989     4.45957241
 H                     6.71826769     5.19249491     0.53911806
 O                    -2.84245261     6.07795432     1.35383481
 O                     1.12821371     3.35727403    -0.22966896
 H                    -1.34849531     2.66515098     4.05143204
 H                     3.92411527     1.28371562     2.78282017
 O                     3.45235010    -6.67202031     3.84843918
 O                     1.01488128    -6.01800774     3.08367819
 O                    -4.47451228    -2.88801685    -5.52171944
 O                    -0.56177915     7.27823277    -1.36289716
 H                    -4.95340625     7.11961428    -0.55382149
 O                     4.80925618     0.58932442    -2.17818703
 O                    -0.03191490     3.78065380     4.13273361
 O                     4.95338348     2.48431051     2.06828397
 O                     2.38964529     4.02904354    -3.70757285
 H                    -4.25711965    -1.54053915     2.66124636
 O                    -3.29950294    -0.39379417     3.47356133
 O                     2.21928298    -1.81576797     3.83057156
 H                     1.79044438     2.58263191    -3.06149573
 O                    -0.81087547     6.15506507     3.08745432
 O                    -6.08792226    -4.52436053     1.61070368
 O                    -1.29553654    -5.83854392     4.54956709
 O                    -4.60118204     6.23631209    -0.71488082
 O                     3.46645995     4.26885532     0.72298638
 H                     0.85190619    -2.97503713     3.84692338
 O                    -5.37239257    -2.83722969    -0.28928762
 O                    -1.10437420     2.74385472    -1.70860535
 H                     1.43287052    -2.09427513    -2.14002560
 H                    -3.35734872     6.93057277     4.64580117
 O                     7.13237771     2.04947089    -2.28421206
 H                     0.79018895    -8.53725637    -0.66546644
 O                    -4.49418535     1.44294169    -0.65268466
 O                    -4.98496614     1.48492880    -3.33460851
 H                    -6.56927727     2.04645826     1.97600111
 Si                   -5.76434754    -2.25961449    -1.76767565
 O                    -0.51808404    -1.52950409     0.15478587
 O                     0.21573135     0.89331653    -0.29479549
 O                    -3.54395370     1.69688446     1.82709790
 Si                   -2.02565110    -4.90319825     0.63859153
 H                     1.82567982     4.84020085    -3.51077851
 H                     2.69674312    -1.94455777     4.66522015
 H                     0.52989398     3.32809091     4.78881371
 Si                    2.31743233    -6.88991960     2.64177809
 O                    -1.16780699    -3.98798056    -0.46269430
 O                    -2.04069473    11.05221251     1.57582793
 O                     2.39572378    -0.62802773    -2.55531370
 H                     1.54733227    -4.30306105    -1.46262174
 O                     3.82391452    -3.96288174     0.29236649
 H                    -5.26920535     2.40286428    -3.42651335
 H                     0.28365086     6.26160759    -3.73158084
 Si                   -4.55124156     2.34681877     0.70767261
 H                    -1.54361178     3.63828764    -1.54342995
 H                     3.78537577     3.52430608    -6.49677802
 O                     0.42200475    10.01944113     1.13644876
 Si                   -0.06075304    -0.17566641     0.92649846
 O                     1.30790232    -0.41661965     1.78258296
 O                    -1.63051082     9.42412315    -0.55316813
 O                     1.93642068     8.34456756    -1.56886691
 Si                    4.48432827    -2.47527874     0.43538910
 H                     1.95004152     0.27080295    -2.61637874
 O                    -7.39097375    -1.93233294    -1.85617017
 O                    -2.10124198     5.13109801    -1.04633534
 O                     1.05136064     6.17394769    -3.13773553
 O                     6.07984940    -2.50701720     0.89128950
 O                    -1.64686021     8.37013593     1.86531758
 O                     4.54452663     5.66465432    -3.76208202
 O                     4.29809398     3.88991720    -5.76526502
 Si                    0.48537216     5.21144093     3.40862023
 Si                   -2.49053127     0.93205111     2.82563377
 H                     1.17580301     9.63710023     0.66020166
 H                     2.78110403     8.56680499    -1.98717417
 Si                    4.95108670     3.56268241     0.77082915
 Si                    2.69045491    -0.78436071     2.58685499
 H                     5.25112787     6.15523972    -4.20839089
 O                     2.06880419    -8.48667313     2.30703080
 O                    -1.68241458    -2.00904831    -2.26453846
 H                     5.75704870     2.31915434     2.59156794
 O                     4.26775408    -1.76410423    -1.03177928
 H                    -3.10730399    -0.77334082     4.34703018
 H                     2.22203078   -11.31589734     2.50040090
 H                    -2.50376129    -9.21000240    -0.75142981
 H                    -5.29475381    -6.12714601    -4.25805160
