20
H2O12Si6 optimized with Band in AMS.
O       -0.94131120133439      -2.73260789767976      -2.65467504256236
O        0.52270340078358      -0.95872551042860      -1.27341557875032
O       -1.27658780261760       0.89200147984068      -0.64538521078795
O        1.15514307280254      -1.62831309748923      -3.80419977339553
O        1.50434542094834       2.00195220629872      -1.79964878817084
O       -1.89327166587974       0.22101029234774      -3.16375111194163
Si       0.56256123065206      -2.15828593392066      -2.38000942461365
Si       0.00000000000000       0.00000000000000       0.00000000000000
Si      -1.87149583000081       1.43748639649365      -2.07483633181469
O        1.45960390022062      -2.67936047536272      -6.76522667810504
O       -1.82410171153357      -0.94117275415772      -5.52138266144779
O        1.06739123756645       0.77061704189743      -4.92625943044784
O       -1.28382141344922      -1.57138070363632      -7.98691363748192
O       -0.98520862074469       1.93663431814454      -6.04443611473712
O        0.61361396249411       0.41470623483157      -7.63384649589748
Si      -1.89117693985660      -2.19401740964213      -6.56499717994888
Si      -2.82710632018888      -0.38473238304756      -4.35316768977989
Si       0.54321980245372       1.40657905687449      -6.33974212508328
H       -0.89799750571671      -2.24478269537675      -8.57376870810073
H       -0.06591808964968      -0.29754321994088      -7.70996564945593
VEC1       4.89438680706504       0.00000000000000       0.00000000000000
VEC2       0.00062300800000       5.38571281353578       0.00000000000000
