   154
 geometry
 O                     3.76107143     1.72132783     4.49537128
 H                    -1.90359395    -5.79573659     0.18120861
 H                     5.40524465     9.64435785    -2.28714467
 Si                   -1.31593029    -8.57352907    -3.12460830
 Si                    0.50190248    -7.65781037     0.96406905
 Si                    1.78210250    -3.99829168     5.00400855
 H                     1.53905619     6.26446300     0.89912688
 Si                   -3.30863487    -4.88609663    -1.68381213
 Si                    0.15939154    -2.40745601     1.05314912
 Si                    3.54442278     0.65348114     3.25289967
 H                    -2.26769915     3.14491812     2.53506881
 Si                   -4.72473310    -0.54819454     1.09234833
 Si                   -0.49915256     2.39589548     0.60018048
 Si                    3.83431911     4.77715095     0.06402997
 H                    -1.60216275    -7.82476078    -0.47425542
 Si                   -4.35955438     4.36984604     3.18465757
 Si                   -0.80524721     7.12452232     0.80664365
 Si                    3.09111116     8.47909535    -2.64943162
 O                    -3.11091000    -0.64956124     1.55429136
 O                     3.03925227    -5.01012686    -4.10103753
 O                     6.36154156    -4.70652935     0.72666970
 O                    -1.41185434     6.28479024     2.09855143
 O                     0.77313265     2.69392113     1.64533899
 O                    -1.51044639    -1.85106704    -4.66188305
 O                     4.38582209    -0.89040302    -2.78126530
 O                     2.26664658     8.29501332    -1.23093572
 O                     4.71355840     6.10711357     0.49904933
 O                    -4.11686778     2.37483410    -2.99236208
 O                     0.26040157     2.55878647    -4.10819354
 H                    -2.42982384    -1.35457576     1.52047051
 H                    -5.14029932     3.74438273     5.59806858
 O                     2.40036928     4.71054213     0.91399794
 O                     0.49778789    -1.79011343     2.56156477
 O                    -1.61137856    -4.97744936    -5.62003597
 O                    -5.25115723     1.01743427     1.07360239
 Si                   -4.60757480     3.63944746    -2.04463191
 Si                    0.19621017     4.23284859    -3.98210437
 O                     1.96080945    -4.75854161    -1.60425563
 O                     4.86934466    -3.09518919     2.34342877
 H                     5.10482453     6.95057094     0.71237967
 H                    -3.33705313    -7.67709029    -1.84938501
 Si                   -1.12928784    -5.48343260    -4.11349026
 O                    -5.25262283     3.53306252     2.04677596
 O                    -1.39047125     6.30421473    -0.54737410
 O                    -2.78000819     3.87136877     2.93378799
 Si                    2.06981380    -4.90393676     0.04657091
 O                    -0.77442296     4.65531372    -2.70498235
 H                    -1.80522304     5.54973076     2.59487351
 H                     5.12490848     4.39931909    -4.71599634
 Si                    4.50025932    -2.47280398     3.84043853
 O                    -3.21711367     4.46889486    -1.61127435
 O                     0.85996423     6.96033965     0.75491573
 O                     1.45604214    -6.37021490     0.53859171
 O                     3.51308278     4.86051902    -1.57124423
 O                    -5.88723043    -1.73480171    -2.87998234
 O                     4.57135226     9.20217590    -2.41550526
 O                     3.18032400    -3.29355837     4.44876439
 H                    -2.11605938   -10.47989434    -4.71044812
 O                    -0.59900651    -0.48507328    -2.48114998
 H                     3.85286722     2.37154449     5.18732594
 H                    -2.31256119     0.90518457     1.59771868
 O                    -4.45429597     6.00318712     2.94415030
 O                     4.30490221     0.97272886    -0.81471964
 H                    -6.25047306     5.23881641    -3.29281870
 O                    -4.04364683    -3.41159280    -1.73417219
 O                    -1.24269932     8.71874924     0.78810123
 H                    -0.71311193     5.28789132    -6.18470889
 O                     2.22033512     9.35271552    -3.76292588
 H                     6.53849558    -2.66434083     5.45779946
 H                     7.59987126     1.31442754     0.46969396
 H                    -8.46442344     2.54243089     0.91247013
 H                     3.70703954    -5.46192102    -4.60992697
 H                     7.12940964    -5.26977677     0.68813502
 O                    -2.25449188    -5.04555993    -2.95712790
 O                     1.08474073    -3.73626016     0.71114726
 H                    -1.32378134    -2.64591066    -5.16236600
 H                     4.59802085    -1.66810336    -3.29628915
 O                     4.37750682     4.49407470    -4.12787910
 O                     1.74258360     4.74165046    -3.64290671
 O                    -4.86925197     3.96184026     4.71057605
 O                    -0.98136370    -7.50894820     0.22022591
 H                    -5.37039254    -6.42475940    -1.83372475
 O                     4.05888581    -0.87852929     3.64827015
 O                     1.91975440    -2.65788829    -3.28171843
 O                     5.09301210    -2.51155190    -0.31795789
 O                     1.27582309    -5.18094215     3.96865536
 H                    -3.60308217     1.73033842    -3.50065728
 O                    -2.02926932     0.85137180    -4.25189498
 O                     3.68648549     1.72188480    -3.33789440
 H                     0.53925372    -2.05138882     3.50995425
 O                     0.34783087    -4.84026396    -3.74398190
 O                    -5.65866303     4.64193165    -2.84407088
 O                    -0.36769079     4.88292269    -5.39355302
 O                    -4.46979253    -6.10439317    -1.78826303
 O                     3.62760399    -4.59537239     0.50542561
 H                     0.75973220     1.74689434    -4.00308344
 O                    -5.31366531     3.09555198    -0.63363550
 O                    -1.45539424    -2.84109188     0.98058711
 H                     1.27250233     2.09247444     2.24660761
 H                    -1.92292069    -4.85813795    -6.51492449
 O                     5.78791719    -2.60677564     4.87285339
 H                     1.74557061     7.97238306    -0.46828200
 O                    -4.75322742    -1.16030727    -0.45875903
 O                    -5.66002791    -1.47265121     2.10051863
 H                    -6.66438698    -1.56694994    -3.40701274
 Si                   -5.85545216     2.56113260     0.84296897
 O                     0.03855430     1.27538357    -0.51021812
 O                     0.46832273    -1.28266424    -0.12261994
 O                    -3.23453463    -1.09692398    -2.73839322
 Si                   -1.63839411     4.85121009    -1.29471302
 H                     1.03926500    -5.87353204     3.34395039
 H                     3.86233259     2.57963901    -3.75001581
 H                     1.91723010    -1.71136924    -3.12577882
 Si                    3.24246799     5.26275444    -3.16012616
 O                    -1.03022673     3.71713818    -0.21998053
 O                    -1.85359515    -9.77535650    -4.12349724
 O                     1.91802417     0.53357323     2.85725083
 H                     1.73802250     4.07721070     1.28600896
 O                     4.63308512     3.34151158     0.34361059
 H                    -6.20384219    -1.96546226     2.70917834
 H                     0.06939832    -7.88735024     3.51892199
 Si                   -4.51717175    -1.81680021    -1.95974511
 H                    -2.01950768    -3.56153960     0.63147302
 H                    -0.01757360    -2.23768205     5.56968313
 O                     0.02433465    -9.01594438    -2.26884778
 Si                    0.48929105    -0.10658686    -1.29193779
 O                     2.00767124     0.06195073    -1.97015784
 O                    -2.49644154    -8.14449381    -1.98748473
 O                     1.21699101    -9.08913213     0.47039367
 Si                    5.02757901     1.73313796     0.48838728
 H                     1.26077745    -0.17909630     2.70017330
 O                    -7.51199279     2.52092760     0.88494943
 O                    -2.44738475    -5.12086391    -0.26723326
 O                     0.32157636    -7.66710915     2.62314261
 O                     6.66035676     1.47679261     0.46292165
 O                    -1.07524377    -7.14607015    -3.96376850
 O                     1.99948442    -4.59757256     6.53684453
 O                     0.61698948    -2.77450356     5.08705144
 Si                    1.83461617    -4.30551942    -3.20623445
 Si                   -1.86007043    -0.66035045    -3.56869630
 H                     0.66239907    -9.16180684    -1.56459880
 H                     1.74459736    -9.88636565     0.47500817
 Si                    5.03009038    -3.72433316     0.80810382
 Si                    3.61478101     0.48653395    -2.24252398
 H                     2.17891969    -4.94335558     7.40721992
 O                     3.33243452     6.91493247    -3.23465475
 O                    -1.73285115     1.69518418     1.47715989
 H                     5.01014435    -1.81853858    -0.98060825
 O                     4.35869697     1.16850235     1.89930872
 H                    -1.51701828     1.64755383    -4.46267035
 H                     1.67514570     9.83489675    -4.37761486
 H                    -1.42647445     9.65247186     0.73674131
 H                    -4.31252886     6.92167340     2.72728251
 Bi                   -1.61134503     0.73289908     5.00865374
