    15
 geometry
 Cl                   -4.10317379    -0.00007431    -0.58712145
 Cl                    4.10317379     0.00007431    -0.58712145
 S                     0.00000000     0.00000000     0.97728179
 C                    -1.39233845    -0.00112401    -0.21865002
 C                     1.39233845     0.00112401    -0.21865002
 C                    -2.69525108     0.00171236     0.55311398
 C                     2.69525108    -0.00171236     0.55311398
 H                    -1.32607413    -0.88839049    -0.84643072
 H                    -1.32434502     0.88355296    -0.84989616
 H                     1.32607413     0.88839049    -0.84643072
 H                     1.32434502    -0.88355296    -0.84989616
 H                    -2.80064044    -0.88330798     1.17342684
 H                    -2.79929381     0.88989755     1.16909647
 H                     2.80064044     0.88330798     1.17342684
 H                     2.79929381    -0.88989755     1.16909647
