   158
 geometry
 O                    -4.31541471     1.40306172     3.95460014
 H                    -0.58179490    -5.60704347    -3.09713971
 H                     2.56121948     9.23297264     6.33543496
 Si                    2.52185357    -9.72734405    -1.84363770
 Si                   -1.78460005    -8.11323701     0.36577044
 Si                   -5.49339195    -4.02845845     1.54442376
 H                    -0.39521434     6.49319936     1.99327499
 Si                    1.81790102    -5.06910206    -3.89178630
 Si                   -1.08096831    -2.68969590    -0.13706994
 Si                   -3.11588815     0.32624247     3.57036806
 H                    -2.31700297     3.24097542    -2.69031086
 Si                   -0.19511700    -0.24976287    -4.94019639
 Si                   -0.44945690     2.37561219    -0.48953516
 Si                    0.07281698     4.49898869     4.21446122
 H                    -0.28755782    -8.97324361    -1.58617494
 Si                   -2.19686521     4.69675415    -4.76553505
 Si                    0.05533039     7.48292196    -0.27949598
 Si                    3.22098511     8.30847463     3.97562566
 O                    -1.07206811    -0.34327732    -3.50226813
 O                     3.67848879    -6.46551925     2.65280258
 O                    -1.69119994    -6.04071571     5.64101571
 O                    -1.39851546     7.29899065    -1.05728130
 O                    -1.53400599     2.67503149     0.75657318
 O                     4.89979690    -1.96632283    -0.77910994
 O                     2.73398333    -1.53315846     4.16870013
 O                     1.95563085     8.40164014     2.91441546
 O                    -0.53620745     5.63041790     5.26088002
 O                     3.89172083     2.55529121    -3.50671873
 O                     4.46711355     2.37328544     0.93417475
 H                    -1.31172698    -0.99392690    -2.82716571
 H                    -4.15690312     4.53037605    -6.49039439
 O                    -0.64812370     4.62316146     2.71040813
 O                    -2.63123919    -2.17594929     0.19291679
 O                     5.26547647    -6.44466269    -1.93449674
 O                     0.07198193     1.32632509    -5.38495790
 Si                    3.01981546     3.86917890    -4.01516132
 Si                    4.31438957     4.05138407     0.92619107
 O                     1.29725842    -5.55333785     1.66342148
 O                    -2.73333665    -3.71950749     4.64654718
 H                    -0.90964313     6.27708471     5.85394462
 H                     0.65550017    -9.43409824    -3.62840630
 Si                    3.65536557    -6.60551868    -1.56928411
 O                    -0.85239691     3.87873492    -5.34804622
 O                     1.09915528     6.27350762    -0.80519981
 O                    -2.57736017     3.92341753    -3.33754017
 Si                   -0.36219352    -5.39448203     1.66956011
 O                     3.05244899     4.48096959    -0.06995105
 H                    -2.21787470     7.02704721    -1.47742301
 H                     4.59640848     3.85820535     5.95946094
 Si                   -4.07047330    -2.78769129     4.29674404
 O                     2.29831608     4.52639313    -2.64468235
 O                    -0.15505437     7.19173884     1.36082348
 O                    -1.07421088    -6.77824284     1.06840440
 O                     1.72112567     4.72053914     4.05562830
 O                     3.69489734    -1.70713379    -5.64174776
 O                     2.80683416     8.90091464     5.47643290
 O                    -4.79419148    -3.39802811     2.91823977
 H                     4.25882745   -11.31577479    -2.97943227
 O                     2.49753188    -0.70029978    -0.47941359
 H                    -5.01092752     2.02230438     4.16313167
 H                    -1.31824324     1.23865549    -2.56000441
 O                    -1.81942253     6.29176872    -4.49817388
 O                     1.00223557     0.57766443     4.54092594
 H                     4.52483878     5.64934021    -5.19444759
 O                     2.23854485    -3.48052602    -4.13313556
 O                     0.70567029     8.98341782    -0.53002990
 H                     6.51260544     5.17397371     0.08488827
 O                     4.56200760     9.12088961     3.42275378
 H                    -5.74523773    -2.80210873     6.30085805
 H                    -0.56655720     0.96026429     7.72984934
 H                     0.72776114     3.06767671    -8.42484355
 H                     4.08256210    -7.03722801     3.30028925
 H                    -1.89198936    -6.82923740     6.13826781
 O                     2.73148094    -5.76149369    -2.67873555
 O                    -0.74531375    -4.10530064     0.67839909
 H                     5.47640663    -2.61921314    -0.38885083
 H                     2.97899217    -2.39440506     4.49133760
 O                     4.14628980     4.17383889     5.17924802
 O                     3.94787329     4.48857700     2.49837352
 O                    -3.44184525     4.58829018    -5.86275583
 O                    -0.91276388    -8.57527112    -0.96480881
 H                     2.17432884    -6.35852209    -6.13929130
 O                    -3.56576283    -1.23403752     3.95209030
 O                     3.46242183    -3.92948063     1.67920305
 O                    -0.15212395    -3.79348819     5.49433170
 O                    -4.68778048    -5.38346332     1.05182350
 H                     4.27145138     1.82501501    -2.99727662
 O                     4.57176832     0.67412958    -1.41994224
 O                     3.51768364     1.04405247     3.67113608
 H                    -3.59365754    -2.33104335     0.24565648
 O                     3.35199618    -6.06595877    -0.02240018
 O                     3.97655054     4.99980745    -4.76323126
 O                     5.72288222     4.75098476     0.41256315
 O                     2.03269987    -5.92893036    -5.29957584
 O                    -0.89991962    -5.07882598     3.21197535
 H                     4.29348629     1.58047958     1.45114197
 O                     1.79154610     3.38514440    -5.04024793
 O                    -0.88927852    -2.94119756    -1.78100973
 H                    -2.16031390     2.14157993     1.27937733
 H                     6.19088100    -6.34463230    -2.14327699
 O                    -5.14026069    -2.79161367     5.56358369
 H                     1.15913409     8.21521039     2.39005506
 O                     1.24540014    -1.03880863    -4.62939242
 O                    -1.02075055    -1.04557897    -6.14242580
 H                     4.29943574    -1.54100718    -6.36082645
 Si                    0.40911800     2.91012774    -5.83648299
 O                     0.44597546     1.03382489    -0.06135741
 O                     0.01271956    -1.52687644     0.33306509
 O                     3.38587744    -1.34119937    -2.94906698
 Si                    1.76125117     4.78137560    -1.09386810
 H                    -4.13392957    -6.11880410     0.75476651
 H                     3.99872344     1.83397942     3.91565373
 H                     3.68784606    -3.01393907     1.83597467
 Si                    3.36320264     5.02006036     3.97276618
 O                     0.57321291     3.64917091    -0.74522552
 O                     3.60579755   -10.75100856    -2.57375766
 O                    -2.81442532     0.33857930     1.91802155
 H                    -1.04256626     4.14507625     1.95659057
 O                    -0.21751806     2.95000438     4.77773311
 H                    -1.50434192    -1.46264280    -6.85062154
 H                    -4.18817806    -7.85629075    -0.54636430
 Si                    2.66395421    -1.87205467    -4.35734287
 H                    -0.54765450    -3.45351503    -2.52713467
 H                    -5.77293845    -2.24407347    -0.30176844
 O                     2.04971601   -10.31906283    -0.36999746
 Si                    1.18466824    -0.35237384     0.47923091
 O                     1.72276529    -0.19133071     2.04749868
 O                     1.15966808    -9.57407058    -2.82724543
 O                    -1.86807591    -9.35599742     1.47010379
 Si                   -0.36236445     1.33020645     5.15403890
 H                    -2.69823417    -0.26008796     1.16391720
 O                     0.60867074     2.98493824    -7.48253197
 O                     0.20637670    -5.17086296    -3.42220824
 O                    -3.35266120    -7.71635429    -0.10171329
 O                    -0.48335955     1.08609260     6.78834910
 O                     3.18077027    -8.20684852    -1.67468646
 O                    -7.10459768    -4.34286344     1.80649101
 O                    -5.38761993    -2.84228452     0.33915236
 Si                    2.96079008    -5.50324126     1.50387108
 Si                    3.86698822    -0.84274800    -1.43440121
 H                     1.75442531   -10.66296770     0.46981018
 H                    -1.95661261   -10.03256918     2.13659063
 Si                   -1.36332038    -4.66746942     4.76580313
 Si                    2.24922901    -0.04243832     3.62594063
 H                    -8.00776358    -4.59621220     1.98131461
 O                     3.56352917     6.66234216     4.11432131
 O                    -1.27950274     1.94179718    -1.87706655
 H                     0.51541127    -3.28102008     5.94318532
 O                    -1.71674526     0.74673963     4.37563229
 H                     4.75245450     1.42587170    -0.83037138
 H                     5.32779426     9.59124373     3.10564214
 H                     1.11547292     9.84072547    -0.61026825
 H                    -1.59447049     7.18668197    -4.25456777
 Os                   -5.21249937     4.93448690    -0.73062994
 O                    -4.91576031     4.82005332     0.96251017
 O                    -6.80975210     5.53301905    -0.98163165
 O                    -5.09606234     3.36996885    -1.43349515
 O                    -4.09114884     6.03051349    -1.44883147
