1
Mc optimized with Band in AMS.
 Mc       0.00000000000000       0.00000000000000       0.00000000000000
VEC1       3.70752441492494      -0.00000000000000      -0.00000000000000
VEC2      -0.00000000000000       3.70752441492494       0.00000000000000
VEC3      -0.00000000000000       0.00000000000000       3.70752441492494
