101
C32H48N8O12S optimized with ForceField in AMS.
 N        2.56300265855633       2.98887281179248      -3.47246790897635
 C        3.97450214891648       2.97641943517318      -3.07451444937437
 C        4.08132553511218       2.77754229873069      -1.57634686866208
 O        3.24288510465134       3.28677332465710      -0.84238583514199
 H        4.45172074456964       2.10297927637082      -3.57537953430265
 C        4.67496248941269       4.28355241781455      -3.51993971861563
 H        4.31401032822733       4.58109021934979      -4.52718089908737
 S        6.27516370398566       4.10787577969859      -3.60673505096932
 H        4.43779806807267       5.11103936046468      -2.81656660552461
 H        6.96625763261640       5.02375474084847      -3.94971329462191
 H        2.12213575917561       3.88833532844897      -3.16798427574649
 H        2.51175809229457       2.95934406816476      -4.51718361305300
 N        5.19245804278424       2.01832563581536      -1.03578760069231
 C        5.15971738191307       1.87231766858526       0.43727483803140
 C        6.53263681893139       1.49041710930002       0.96587717151821
 O        7.36430928121266       1.01057583042477       0.20475303672316
 C        4.12592616484343       0.79499923134098       0.84990139567243
 H        3.27407837972785       0.78561010744136       0.13582723385036
 H        4.59278946715950      -0.21518328117633       0.80354216019494
 C        3.56338625162626       1.04469000560836       2.25643035597136
 H        4.38484641457053       1.11992038531789       2.99852848010128
 H        3.00257063759669       2.00498527640084       2.26874299676581
 C        2.64312293567922      -0.06654616328764       2.66406884380754
 O        3.09909186749280      -1.05524513199310       3.22413534800572
 O        1.29625994177553       0.02984392101463       2.38376386784038
 H        0.85570628326279      -0.78666990510111       2.73670994938432
 H        6.04972979412813       2.56165809757905      -1.28687228737476
 H        4.90124574500079       2.85405277179329       0.89711448873363
 N        6.82749865818053       1.68315501528810       2.37067112499690
 C        8.22578271891773       1.38930479845059       2.75232833415661
 C        8.28897572933084       1.09487802068508       4.23600073767465
 O        7.38302751104316       1.47142482551743       4.96973801755866
 C        9.15911696058167       2.56856852848148       2.37641939417211
 C       10.65435876549821       2.22353770841278       2.51151103423968
 C       11.56453696771752       3.31260199937649       2.00108295626621
 O       11.10690198320675       4.33878512917931       1.51583232677926
 N       12.98473726653757       3.14282279453374       2.10985610348037
 H        8.56605171628921       0.46486495798450       2.23372301899995
 H        6.60429036077307       2.67644751423052       2.61584943219226
 H        8.92438108282823       3.44873903704510       3.01549680723300
 H        8.95982811353745       2.85569909757443       1.32105533516410
 H       10.87236427398519       1.28965116488313       1.95053730714216
 H       10.90473798278241       2.06089574033115       3.57912156822690
 H       13.46080939876250       3.99314405625621       1.72987671774293
 H       13.25172954539983       2.34742029027551       1.48664023940851
 N        9.42047836442147       0.35880067624846       4.75882352027126
 C        9.39333509152424       0.13878441488590       6.21976450578823
 C       10.79913149070282      -0.10936775372123       6.72443571125315
 O       11.70410093922737      -0.29073835213235       5.91754519729217
 H        9.46969973565768      -0.56291620140491       4.26380873525174
 H        9.02722947669305       1.05326170258002       6.73775004073622
 C        8.48248769104288      -1.04894662762737       6.57779526991616
 H        7.49155885608305      -0.94201644274011       6.08988451019338
 H        8.93941235442347      -2.00439351737794       6.23911238621495
 H        8.31330792186868      -1.09645102883644       7.67377167608008
 N       11.06639627809086      -0.08704069800873       8.14954769071671
 C       12.41855233704257      -0.57427533938018       8.46118839606355
 C       12.67609237741101      -0.60400222725929       9.94572689859685
 O       11.89628140924160      -0.05886820177554      10.71637371306024
 H       12.54599038555371      -1.60584951525533       8.06189264816992
 H       13.18002081683147       0.08969501101955       7.99672939704586
 H       10.39632314420398      -0.75076797956089       8.60099866173814
 N       13.88644530473373      -1.23307221940727      10.42694351964433
 C       13.86618755051439      -1.59639089107271      11.86125844769582
 C       15.27441353199182      -1.94085859056550      12.30903019306231
 O       16.11295355737987      -2.24656718491122      11.46943182210641
 C       12.84424992241554      -2.74176305087480      12.17469902782038
 C       13.27874100834457      -4.11999138450631      11.64524756071609
 C       12.53917677921821      -2.83249798442615      13.67781719607934
 H       13.57463545311627      -0.69052320249113      12.43858797612491
 H       14.06578419006501      -2.08833080866596       9.85332436219626
 H       11.87969746587337      -2.49609947094365      11.68067298639602
 H       13.38836679008550      -4.10763964762888      10.54234476484172
 H       12.50610007193593      -4.88012834663138      11.88999973113834
 H       14.23761566323473      -4.44055403499516      12.10432853893437
 H       11.68958077275589      -3.52750944911884      13.85091642103397
 H       12.25088617539911      -1.83756939007349      14.07859543428448
 H       13.41586735770200      -3.21117991885169      14.24275514990243
 N       15.61109352686922      -1.89699760824664      13.71788556284319
 C       17.02505693788258      -2.22133698483073      14.00476198436174
 C       17.17503113488607      -2.61909414960378      15.46308218808327
 O       16.34411435328626      -2.25348920258795      16.28051692018256
 C       17.94748108218225      -1.01676277526144      13.68332969172937
 H       17.59844991320247      -0.49331412967803      12.76771926485325
 H       17.88244219154006      -0.26864596598275      14.50496540876129
 C       19.37775945334502      -1.43684162616291      13.45585653369212
 C       20.37824482369879      -1.10373236396068      14.38256238417695
 H       20.13174064659616      -0.55908421894512      15.28544791389598
 C       21.70601603113340      -1.47729455352222      14.15206369727554
 H       22.46758329225510      -1.21600006018106      14.87592255364417
 C       22.05604866687068      -2.17967922832006      12.99297562824369
 C       21.05422587809076      -2.51104286542078      12.06061167307304
 H       21.29992512594712      -3.05025510546344      11.15432620968044
 C       19.72683720646310      -2.14063020580987      12.29198482322678
 H       18.97101994668078      -2.39587903638487      11.55958205806189
 O       23.37744849451630      -2.52225185075782      12.79864209224545
 H       23.45768153019590      -3.00806765903037      11.93752240596783
 H       17.31934424937824      -3.11051212942006      13.40193297226321
 H       15.39670368027486      -0.93566166700167      14.07384515758216
 O       18.23789333724788      -3.38300631864416      15.89984152286585
 H       18.79029152400355      -3.62149393835629      15.11293658303238
