21
 TNT from PubChem SDF-Avogadro->XYZ
O          0.54540       -3.51400        0.00120
O          0.54950        3.51370        0.00080
O          2.46770       -2.45390       -0.00050
O          2.47050        2.45130        0.00030
O         -3.59310       -1.09590        0.00040
O         -3.59220        1.09930        0.00060
N          1.21420       -2.45400        0.00020
N          1.21700        2.45270        0.00000
N         -2.98460        0.00150        0.00010
C          1.22530       -0.00060       -0.00090
C          0.52710       -1.20820       -0.00080
C          0.52840        1.20780       -0.00080
C         -1.56460        0.00080       -0.00040
C         -0.86780       -1.20740       -0.00060
C         -0.86660        1.20840       -0.00060
C          2.72390       -0.00160        0.00110
H         -1.41590       -2.14680       -0.00030
H         -1.41370        2.14830       -0.00030
H          3.12260        0.24180       -0.98910
H          3.08630        0.69340        0.76620
H          3.31540       -0.81110        0.41090
