
  ACD/LABS10102518073D

 78 80  0  0  1  0  0  0  0  0  1 V2000
    8.7304   -8.7651   -4.0125 O   0  0  0  0  0  0  0  0  0  0  0  0
    9.3659   -9.4149   -1.8749 O   0  0  0  0  0  0  0  0  0  0  0  0
    7.3732   -8.3913   -2.5551 O   0  0  0  0  0  0  0  0  0  0  0  0
   11.8085   -7.0722   -4.7246 O   0  0  0  0  0  0  0  0  0  0  0  0
    7.8583  -11.5152   -0.7310 O   0  0  0  0  0  0  0  0  0  0  0  0
    5.0613  -11.5768   -1.3172 O   0  0  0  0  0  0  0  0  0  0  0  0
    3.8846   -8.8793   -1.5421 O   0  0  0  0  0  0  0  0  0  0  0  0
   10.7268  -11.5080   -4.2296 O   0  0  0  0  0  0  0  0  0  0  0  0
    9.2397   -5.2354   -4.8734 O   0  0  0  0  0  0  0  0  0  0  0  0
    4.1301   -6.7062   -2.7880 O   0  0  0  0  0  0  0  0  0  0  0  0
    9.6496   -9.5580   -3.2625 C   0  0  0  0  0  0  0  0  0  0  0  0
   11.0498   -9.0554   -3.5587 C   0  0  0  0  0  0  0  0  0  0  0  0
   10.7997   -7.6003   -3.8719 C   0  0  0  0  0  0  0  0  0  0  0  0
    9.4316   -7.6453   -4.5486 C   0  0  0  0  0  0  0  0  0  0  0  0
    7.9793   -9.2511   -1.5987 C   0  0  0  0  0  0  0  0  0  0  0  0
    7.2403  -10.5930   -1.6169 C   0  0  0  0  0  0  0  0  0  0  0  0
    5.7853  -10.3594   -1.1942 C   0  0  0  0  0  0  0  0  0  0  0  0
    5.1421   -9.2755   -2.0775 C   0  0  0  0  0  0  0  0  0  0  0  0
    6.0544   -8.0401   -2.1467 C   0  0  0  0  0  0  0  0  0  0  0  0
    9.5264  -11.0129   -3.6521 C   0  0  0  0  0  0  0  0  0  0  0  0
    8.6273   -6.3715   -4.2840 C   0  0  0  0  0  0  0  0  0  0  0  0
    5.4616   -7.0481   -3.1434 C   0  0  0  0  0  0  0  0  0  0  0  0
   11.4214   -9.5466   -4.4885 H   0  0  0  0  0  0  0  0  0  0  0  0
   10.7720   -7.0275   -2.9177 H   0  0  0  0  0  0  0  0  0  0  0  0
    9.5617   -7.7937   -5.6450 H   0  0  0  0  0  0  0  0  0  0  0  0
    7.8901   -8.7857   -0.5909 H   0  0  0  0  0  0  0  0  0  0  0  0
    7.2803  -11.0073   -2.6478 H   0  0  0  0  0  0  0  0  0  0  0  0
    5.7695  -10.0362   -0.1278 H   0  0  0  0  0  0  0  0  0  0  0  0
    4.9792   -9.6913   -3.0979 H   0  0  0  0  0  0  0  0  0  0  0  0
    6.1180   -7.5850   -1.1336 H   0  0  0  0  0  0  0  0  0  0  0  0
    8.7039  -11.1152   -4.3946 H   0  0  0  0  0  0  0  0  0  0  0  0
    9.2837  -11.5921   -2.7378 H   0  0  0  0  0  0  0  0  0  0  0  0
    8.5547   -6.2168   -3.1831 H   0  0  0  0  0  0  0  0  0  0  0  0
    7.6050   -6.4918   -4.7060 H   0  0  0  0  0  0  0  0  0  0  0  0
    6.0828   -6.1246   -3.1400 H   0  0  0  0  0  0  0  0  0  0  0  0
    5.4683   -7.4974   -4.1621 H   0  0  0  0  0  0  0  0  0  0  0  0
   11.9806   -6.1863   -4.3985 H   0  0  0  0  0  0  0  0  0  0  0  0
    7.2839  -12.2864   -0.7395 H   0  0  0  0  0  0  0  0  0  0  0  0
    4.2106  -11.4170   -0.9041 H   0  0  0  0  0  0  0  0  0  0  0  0
    3.3550   -9.6784   -1.5093 H   0  0  0  0  0  0  0  0  0  0  0  0
   11.3093  -11.6598   -3.4850 H   0  0  0  0  0  0  0  0  0  0  0  0
    8.6059   -4.5237   -4.7455 H   0  0  0  0  0  0  0  0  0  0  0  0
    3.8573   -6.0703   -3.4543 H   0  0  0  0  0  0  0  0  0  0  0  0
   11.9492   -9.2864   -2.4686 O   0  0  0  0  0  0  0  0  0  0  0  0
   11.1989  -12.2655   -2.3435 O   0  0  0  0  0  0  0  0  0  0  0  0
   15.8859  -12.2937    0.5646 O   0  0  0  0  0  0  0  0  0  0  0  0
   16.3522   -7.3356   -3.4514 O   0  0  0  0  0  0  0  0  0  0  0  0
   14.2759   -8.0819   -3.8474 N   0  0  0  0  0  0  0  0  0  0  0  0
   16.5611   -5.5800   -5.4370 N   0  0  0  0  0  0  0  0  0  0  0  0
   13.0964  -10.0668   -2.8162 C   0  0  0  0  0  0  0  0  0  0  0  0
   13.3163  -11.2190   -1.8075 C   0  0  0  0  0  0  0  0  0  0  0  0
   14.3336   -9.1487   -2.8391 C   0  0  0  0  0  0  0  0  0  0  0  0
   12.3669  -12.2298   -1.6297 C   0  0  0  0  0  0  0  0  0  0  0  0
   14.4895  -11.2614   -1.0581 C   0  0  0  0  0  0  0  0  0  0  0  0
   14.7226  -12.2778   -0.1487 C   0  0  0  0  0  0  0  0  0  0  0  0
   12.6097  -13.2437   -0.7094 C   0  0  0  0  0  0  0  0  0  0  0  0
   13.7763  -13.2683    0.0249 C   0  0  0  0  0  0  0  0  0  0  0  0
   15.3381   -7.2341   -4.1028 C   0  0  0  0  0  0  0  0  0  0  0  0
   15.2390   -6.1634   -5.1623 C   0  0  0  0  0  0  0  0  0  0  0  0
   10.3434  -13.4131   -2.2567 C   0  0  0  0  0  0  0  0  0  0  0  0
   16.3408  -13.4546    1.2449 C   0  0  0  0  0  0  0  0  0  0  0  0
   12.9464  -10.5175   -3.8225 H   0  0  0  0  0  0  0  0  0  0  0  0
   15.2288   -9.7749   -3.0571 H   0  0  0  0  0  0  0  0  0  0  0  0
   14.4426   -8.6706   -1.8422 H   0  0  0  0  0  0  0  0  0  0  0  0
   15.2595  -10.4718   -1.1920 H   0  0  0  0  0  0  0  0  0  0  0  0
   13.3835   -8.0786   -4.3177 H   0  0  0  0  0  0  0  0  0  0  0  0
   11.8587  -14.0461   -0.5640 H   0  0  0  0  0  0  0  0  0  0  0  0
   13.9552  -14.0880    0.7510 H   0  0  0  0  0  0  0  0  0  0  0  0
   14.5595   -5.3578   -4.7969 H   0  0  0  0  0  0  0  0  0  0  0  0
   14.8266   -6.6045   -6.0951 H   0  0  0  0  0  0  0  0  0  0  0  0
    9.5886  -13.4170   -3.0720 H   0  0  0  0  0  0  0  0  0  0  0  0
   10.9628  -14.3331   -2.3421 H   0  0  0  0  0  0  0  0  0  0  0  0
    9.8080  -13.4139   -1.2798 H   0  0  0  0  0  0  0  0  0  0  0  0
   16.2119  -14.3498    0.6012 H   0  0  0  0  0  0  0  0  0  0  0  0
   15.7486  -13.5826    2.1760 H   0  0  0  0  0  0  0  0  0  0  0  0
   17.4161  -13.3518    1.5042 H   0  0  0  0  0  0  0  0  0  0  0  0
   16.3859   -4.8200   -6.0775 H   0  0  0  0  0  0  0  0  0  0  0  0
   16.8336   -5.1328   -4.5737 H   0  0  0  0  0  0  0  0  0  0  0  0
  1 11  1  0  0  0  0
  1 14  1  0  0  0  0
 11  2  1  6  0  0  0
 15  2  1  6  0  0  0
  3 15  1  0  0  0  0
  3 19  1  0  0  0  0
 13  4  1  1  0  0  0
  4 37  1  0  0  0  0
 16  5  1  6  0  0  0
  5 38  1  0  0  0  0
 17  6  1  1  0  0  0
  6 39  1  0  0  0  0
 18  7  1  6  0  0  0
  7 40  1  0  0  0  0
  8 20  1  0  0  0  0
  8 41  1  0  0  0  0
  9 21  1  0  0  0  0
  9 42  1  0  0  0  0
 10 22  1  0  0  0  0
 10 43  1  0  0  0  0
 11 12  1  0  0  0  0
 11 20  1  0  0  0  0
 12 13  1  0  0  0  0
 12 23  1  0  0  0  0
 13 14  1  0  0  0  0
 13 24  1  0  0  0  0
 14 21  1  6  0  0  0
 14 25  1  0  0  0  0
 15 16  1  0  0  0  0
 15 26  1  0  0  0  0
 16 17  1  0  0  0  0
 16 27  1  0  0  0  0
 17 18  1  0  0  0  0
 17 28  1  0  0  0  0
 18 19  1  0  0  0  0
 18 29  1  0  0  0  0
 19 22  1  1  0  0  0
 19 30  1  0  0  0  0
 20 31  1  0  0  0  0
 20 32  1  0  0  0  0
 21 33  1  0  0  0  0
 21 34  1  0  0  0  0
 22 35  1  0  0  0  0
 22 36  1  0  0  0  0
 44 50  1  0  0  0  0
 45 53  1  0  0  0  0
 45 60  1  0  0  0  0
 46 55  1  0  0  0  0
 46 61  1  0  0  0  0
 47 58  2  0  0  0  0
 48 52  1  0  0  0  0
 48 58  1  0  0  0  0
 48 66  1  0  0  0  0
 49 59  1  0  0  0  0
 49 77  1  0  0  0  0
 49 78  1  0  0  0  0
 50 51  1  0  0  0  0
 50 52  1  0  0  0  0
 50 62  1  0  0  0  0
 51 53  2  0  0  0  0
 51 54  1  0  0  0  0
 52 63  1  0  0  0  0
 52 64  1  0  0  0  0
 53 56  1  0  0  0  0
 54 55  2  0  0  0  0
 54 65  1  0  0  0  0
 55 57  1  0  0  0  0
 56 57  2  0  0  0  0
 56 67  1  0  0  0  0
 57 68  1  0  0  0  0
 58 59  1  0  0  0  0
 59 69  1  0  0  0  0
 59 70  1  0  0  0  0
 60 71  1  0  0  0  0
 60 72  1  0  0  0  0
 60 73  1  0  0  0  0
 61 74  1  0  0  0  0
 61 75  1  0  0  0  0
 61 76  1  0  0  0  0
 12 44  1  0  0  0  0
M  END
