15
xyz prepared by easyxtb
O         1.38648283523310     2.38972713694154     0.00025870178483
C         0.69502654540000     1.19545409190000    -0.00004648250000
C         1.39160001590000    -0.00711627690000    -0.00003315990000
O         2.75488859270000    -0.05823345090000     0.00003761060000
C         0.68615962650000    -1.20443437160000    -0.00001274080000
H         1.23433217190000    -2.13266777540000     0.00014422010000
C        -0.69503963760000    -1.19545023080000    -0.00004587080000
H        -1.23715224480000    -2.13176232990000     0.00007438160000
C        -1.39160306390000     0.00711709590000     0.00002962030000
C        -0.68617128690000     1.20443128270000    -0.00000491670000
H        -1.23435345410000     2.13266746310000    -0.00005227820000
O        -2.75486735750000     0.05823084440000     0.00002687030000
H        -3.11163257160000    -0.83772132070000    -0.00005517250000
H         3.11165906250000     0.83771983170000     0.00002561280000
H         0.77002509487460     3.11255479886135     0.00020516798718
