3

O      -1.57568100      -1.65049200      -0.00000000
H      -1.10664200      -2.50684700      -0.00000000
Nh       0.00000000       0.00000000       0.00000000
VEC1      -3.00000000       0.00000000      -0.00000000 
VEC2       0.00000000       3.00000000       0.00000000 
VEC3       0.00000000       0.00000000      -3.00000000 
