56
  Molecule 1 - S1 opt
C       -0.411149000      2.945038000     -1.541088000
C        0.411146000     -2.945044000     -1.541092000
C        0.894229000      2.802978000     -1.051335000
C       -0.894231000     -2.802984000     -1.051336000
C        1.711095000      3.904631000     -0.823107000
C       -1.711099000     -3.904635000     -0.823110000
C        1.193750000      5.158576000     -1.144019000
C       -1.193757000     -5.158580000     -1.144027000
C       -0.096408000      5.309561000     -1.665677000
C        0.096398000     -5.309566000     -1.665687000
C       -0.912179000      4.198831000     -1.865171000
C        0.912172000     -4.198838000     -1.865180000
C        1.025884000     -1.611168000     -1.623644000
C       -1.025885000      1.611160000     -1.623642000
C        0.014386000      0.701753000     -1.107928000
C       -0.014384000     -0.701760000     -1.107928000
H        2.707388000      3.806420000     -0.408000000
H       -2.707392000     -3.806423000     -0.408002000
H        1.810002000      6.036928000     -0.980310000
H       -1.810011000     -6.036931000     -0.980319000
H       -0.465668000      6.302268000     -1.901803000
H        0.465656000     -6.302274000     -1.901819000
H        1.922856000     -4.296510000     -2.248344000
H       -1.922864000      4.296502000     -2.248332000
N        1.140834000      1.439389000     -0.806203000
N       -1.140834000     -1.439394000     -0.806203000
O        2.128698000     -1.297968000     -2.066765000
O       -2.128700000      1.297959000     -2.066759000
C       -2.278514000     -0.955677000     -0.121027000
C       -2.125106000     -0.128258000      0.992367000
C       -3.553651000     -1.299379000     -0.574576000
C       -3.248713000      0.357504000      1.647025000
C       -4.670063000     -0.822633000      0.091534000
C       -4.519478000      0.009717000      1.201033000
H       -1.135431000      0.126064000      1.351870000
H       -3.663976000     -1.894663000     -1.473807000
H       -3.130561000      1.004680000      2.508863000
H       -5.660730000     -1.073901000     -0.270530000
C       -5.734641000      0.483261000      1.948746000
F       -6.111142000     -0.404807000      2.889418000
F       -5.514888000      1.648881000      2.578862000
F       -6.788454000      0.656057000      1.134030000
C        2.278516000      0.955673000     -0.121028000
C        2.125109000      0.128255000      0.992366000
C        3.553652000      1.299380000     -0.574576000
C        3.248717000     -0.357503000      1.647026000
C        4.670065000      0.822638000      0.091536000
C        4.519481000     -0.009712000      1.201035000
H        1.135435000     -0.126069000      1.351870000
H        3.663976000      1.894664000     -1.473807000
H        3.130567000     -1.004679000      2.508864000
H        5.660731000      1.073909000     -0.270527000
C        5.734645000     -0.483251000      1.948750000
F        6.111140000      0.404819000      2.889424000
F        5.514896000     -1.648872000      2.578866000
F        6.788461000     -0.656042000      1.134036000

