339

Si        10.38372        3.75455       -7.96069
H         -7.37720       -2.14372      -10.37616
H          6.68900        5.32826      -10.57382
Si       -11.86695       -3.78517       -8.79779
Si        -9.62182        0.17917       -8.74870
Si        -7.27298        4.36974       -8.86958
H          5.08298        1.51959      -10.71296
Si        -6.87136       -3.93796       -8.93822
Si        -4.56086        0.20171       -9.12781
Si        -2.21893        4.26413       -9.06302
H          2.74276       -2.58677      -10.07337
Si        -1.97695       -4.13535       -8.82372
Si         0.34914        0.02489       -9.19516
Si         2.83524        3.97410       -9.30899
H         -9.60418       -0.79378      -10.89341
Si         2.96660       -4.37833       -8.56324
Si         5.31169       -0.35896       -9.31251
Si         7.83482        3.50875       -9.61424
O        -11.64738       -5.11674       -4.67575
O         -9.25502       -0.81454       -4.72745
O         -7.21918        3.30062       -4.85136
O         -4.85468        7.51233       -4.81936
O         -6.88048       -5.07509       -4.64360
O         -4.24783       -0.84768       -4.63913
O         -1.90545        3.35248       -4.78091
O          0.38029        7.40364       -5.22291
O         -2.05796       -5.13178       -4.42360
O          0.82580       -0.95306       -4.63629
O          3.17868        3.11109       -4.95009
O          5.50027        7.06651       -5.46160
O          2.94220       -5.28463       -4.28192
O          6.05299       -1.16659       -4.63111
O          8.40968        2.82046       -5.11290
O         10.58304        7.16043       -5.54829
O         -9.82861       -6.01077       -1.55265
O         -8.89896       -1.21472       -0.73875
O         -6.52120        3.07003       -1.19462
Si        11.46317        6.03576       -6.25099
O         -4.65423       -5.68337       -1.36082
O         -3.17838       -1.14478       -0.40033
O         -1.16714        3.13498       -0.43880
Si        -9.33760       -4.12706       -7.15044
O          0.26727       -5.59636       -1.33888
O          1.90713       -1.12657       -0.40285
O          3.97857        3.21936       -0.55130
Si        -6.96329       -0.06329       -7.28399
O          4.92804       -5.10943       -0.72848
O          7.06762       -0.67992       -0.33166
O          9.09955        3.69074       -0.47474
Si        -4.67425        4.16222       -7.27828
H         -5.50540        8.06768       -4.91895
O        -10.33911       -3.80923       -2.83275
O         -8.37978        0.45816       -2.62931
O         -6.28749        4.87358       -3.02366
H         -0.31088        7.54900       -4.73034
O         -5.46013       -3.75929       -2.91368
O         -4.08924        0.37097       -2.33265
O         -1.65629        4.61588       -2.53334
H          5.15074        7.85038       -5.53276
O         -0.47186       -3.70058       -2.95867
O          1.10522        0.34896       -2.39880
O          3.36796        4.47237       -2.74979
H          9.88923        7.66708       -5.60920
O          4.51293       -3.75306       -2.90360
O          6.26829        0.40056       -2.55882
O          8.52912        4.27857       -2.95081
H         -9.03301       -7.04737       -4.05599
O         -9.44939       -3.72186       -0.38839
O         -7.40278        0.83347       -0.23550
O         -5.31998        5.31205       -0.65792
H         -4.40944       -6.99906       -3.85340
O         -4.70150       -3.23306       -0.48557
O         -3.11719        1.45586       -0.15341
O         -0.39647        5.62507       -0.48916
H          0.26183       -7.31556       -3.72043
O          0.25076       -3.11865       -0.53731
O          2.08815        1.47043       -0.25284
O          4.27086        5.80525       -0.70529
H         11.54185        3.86631       -2.49239
O          5.31438       -2.53781       -0.76392
O          7.23145        1.89165       -0.65644
O          9.23949        6.15447       -1.30187
O         -9.82835       -6.96282       -4.37529
O         -7.46822       -2.60759       -4.08765
O         -5.54651        1.38272       -4.29025
O         -3.12640        5.62081       -4.44677
O         -5.14758       -6.97773       -4.29652
O         -2.31967       -2.55091       -4.36515
O         -0.37562        1.31991       -4.33770
O          1.98582        5.42088       -4.74864
O         -0.48481       -7.18168       -4.12842
O          2.71992       -2.70191       -4.44633
O          4.68839        1.04304       -4.54823
O          7.08798        5.06659       -5.00186
O          4.45972       -7.33440       -3.84261
O          8.09145       -2.77635       -4.57583
O         10.11889        0.87618       -5.02406
O         12.29216        5.24888       -5.14399
O         -7.88559       -4.47473       -2.32710
O         -6.50260       -1.09305       -1.73891
O         -4.20016        3.54964       -2.21714
H          8.42571        1.42356      -10.53472
O         -2.95014       -3.95425       -2.26877
O         -1.56835        0.25186       -1.82624
O          0.75374        3.85602       -1.99832
Si         0.38726       -4.37544       -6.93767
O          2.01855       -3.92076       -2.26012
O          3.61778        0.13487       -1.85513
O          5.83763        4.23346       -2.04333
Si         2.86307       -0.19580       -7.49746
O          6.93219       -4.11955       -2.05458
O          8.79440        0.31071       -1.99897
O         10.97840        4.40010       -2.11897
Si         5.44205        3.60127       -7.74758
H        -12.46864       -7.65915       -6.12435
Si        -9.26654       -2.32179        0.34044
Si        -7.12747        2.36389        0.09177
H          2.50078        2.46004      -11.07977
H         -7.56814       -7.31233       -6.74100
Si        -4.09837       -2.10868        0.46475
Si        -2.29282        2.61654        0.56025
Si        -4.48577       -4.17778       -7.08850
H         -2.88235       -7.81074       -5.95584
Si         0.87853       -2.01597        0.42071
Si         2.92345        2.61323        0.47578
Si        -2.08266        0.05314       -7.36248
H          2.10692       -7.40184       -6.37294
Si         5.98248       -1.62222        0.35076
Si         7.96214        2.91154        0.32105
Si         0.39058        3.92503       -7.50721
Si        -9.37482       -4.50144       -1.77159
Si        -7.78568       -0.25013       -1.33497
Si        -5.57379        4.20634       -1.77332
H        -10.49201       -6.55955       -1.52898
Si        -4.44392       -4.15649       -1.75631
Si        -3.01132        0.23578       -1.16983
Si        -0.62702        4.31405       -1.36092
H         -5.22021       -6.32789       -1.28274
Si         0.51322       -4.08521       -1.77265
Si         2.16544        0.21072       -1.22212
Si         4.35581        4.43403       -1.50786
H         -0.31615       -6.22073       -1.23098
Si         5.42395       -3.87977       -1.60933
Si         7.33627        0.48230       -1.38432
Si         9.45837        4.63167       -1.70819
H          4.29978       -5.68356       -0.59576
H         -2.06243        7.31659       -6.85035
Si       -11.70454       -3.90405       -3.64418
Si        -9.53893        0.38035       -3.71660
Si        -7.44532        4.67753       -4.09097
H          3.20243        6.94677       -7.15444
Si        -6.92464       -3.97931       -3.49363
Si        -4.24534        0.55902       -3.90459
Si        -1.81937        4.78527       -4.10501
H          8.13872        6.62809       -7.62282
Si        -1.95678       -3.83522       -3.50752
Si         0.92029        0.48277       -3.97214
Si         3.26185        4.57069       -4.33060
H         12.91755        6.60195       -8.01441
Si         3.04179       -3.91606       -3.47849
Si         6.04908        0.33983       -4.13118
Si         8.40115        4.29962       -4.53582
O        -11.92606       -5.09090       -9.70557
O         -9.93472       -0.47445      -10.16508
O         -7.60299        3.46941      -10.13959
H         -5.11331        2.08634      -10.42194
O         -6.68615       -5.08614      -10.02390
O         -4.56588       -0.90034      -10.27413
O         -2.59663        3.46576      -10.38621
H          2.28578        6.24109       -9.62931
O         -1.81623       -5.33092       -9.86105
O          0.23015       -1.19212      -10.21150
O          2.46587        3.20691      -10.65262
H         -0.05984        1.81091      -10.67405
O          3.29403       -5.59001       -9.54124
O          5.38757       -1.69415      -10.17462
O          8.04642        2.19526      -10.48687
H         -2.30868       -2.33266      -10.29552
O         -9.84882       -5.49485       -6.52075
O         -7.26006       -1.29634       -6.32521
O         -5.03835        3.01167       -6.24332
O         -2.76589        7.35230       -6.35472
O         -5.05055       -5.51700       -6.44179
O         -2.56842       -1.26009       -6.60615
O          0.05857        2.84211       -6.39265
O          2.46045        7.03949       -6.72715
O         -0.21689       -5.65558       -6.20782
O          2.33662       -1.46732       -6.70219
O          5.10206        2.55138       -6.60784
O          7.58049        6.69522       -6.97037
O          4.85669       -5.87449       -5.95998
O          7.36037       -1.69230       -6.82876
O         10.07479        2.44972       -7.09868
O         12.45397        6.71199       -7.29690
H         -4.83594       -1.68247      -10.51245
O        -10.39525       -3.61147       -8.22014
O         -8.07510        0.00211       -8.41960
O         -5.74827        4.17891       -8.45339
H          0.21398       -2.04772      -10.30501
O         -5.49054       -3.65706       -8.20523
O         -3.09119        0.38808       -8.54728
O         -0.73360        3.89003       -8.63259
H          5.15068       -2.09139      -10.90100
O         -0.60254       -3.87417       -8.07474
O          1.84560        0.15215       -8.66991
O          4.30633        3.56749       -8.86184
H        -11.77882       -5.93861       -9.74536
O          4.24576       -4.02388       -7.68755
O          6.74908       -0.02260       -8.72592
O          9.22736        4.00115       -9.02504
O        -11.70862       -7.25451       -6.14371
O         -9.16489       -3.04814       -5.99514
O         -6.97416        1.29117       -6.45386
O         -4.65685        5.57024       -6.53799
O         -6.98641       -7.20938       -6.11429
O         -4.29927       -3.07086       -5.96174
O         -2.01477        1.27911       -6.35123
O          0.46844        5.37145       -6.84993
O         -2.29200       -7.18514       -5.99682
O          0.62727       -3.21425       -5.88096
O          2.99590        1.04759       -6.51773
O          5.56893        5.05432       -7.11176
O          2.74267       -7.38171       -5.79227
O          5.86761       -3.49908       -5.71462
O          8.11591        0.79320       -6.68065
O         10.49501        5.02195       -7.00460
H         -6.63382       -5.93458      -10.16229
O         -7.38482       -2.61477       -9.65538
O         -5.07567        1.58122       -9.72568
O         -2.29763        5.82840       -9.34476
H         -1.98962       -6.15767      -10.02880
O         -2.42499       -2.82115       -9.59624
O         -0.06428        1.36980       -9.93477
O          2.78744        5.54396       -9.56505
H          3.04624       -6.36461       -9.82469
O          2.53588       -3.11392       -9.42504
O          4.83663        0.84718      -10.23460
O          7.22579        4.65574      -10.53460
H         -2.80658        6.52259       -9.37434
O         -7.94352       -4.40035       -7.86082
O         -5.53801       -0.25563       -7.96003
O         -3.23716        3.87950       -7.90170
Si         5.39729       -4.60462       -6.75652
O         -3.08231       -4.51601       -7.74929
O         -0.63482       -0.21206       -7.96717
O          1.79534        3.58313       -8.17057
Si         7.85814       -0.42931       -7.66350
O          1.77322       -4.79132       -7.59693
O          4.28880       -0.54364       -8.10948
O          6.82386        3.20596       -8.42537
H         -7.72965        2.66984      -10.43389
O          6.63546       -5.04260       -7.65525
O          9.21095       -0.79569       -8.41721
O         11.76195        3.55515       -8.73118
H         -2.56622        2.70852      -10.79539
Si       -10.75465       -6.20480       -5.42306
Si        -8.27456       -1.93868       -5.28305
Si        -6.19167        2.24822       -5.45606
Si        -3.84973        6.51457       -5.54447
Si        -6.01536       -6.19034       -5.37295
Si        -3.35563       -1.92472       -5.39192
Si        -1.06284        2.19690       -5.46769
Si         1.32238        6.30804       -5.88957
Si        -1.26416       -6.28222       -5.18452
Si         1.63071       -2.07577       -5.41379
Si         3.98800        1.93955       -5.65545
Si         6.43378        5.97009       -6.13842
Si         3.75340       -6.46547       -4.97295
Si         6.84996       -2.27964       -5.43753
Si         9.18623        1.73847       -5.98184
H         -4.91237        6.04431       -0.45951
H          0.14637        6.26311       -0.28925
H          4.71343        6.42199       -0.29853
H          9.50057        6.80357       -0.79965
O        -10.62375       -1.91705        1.06565
O         -8.09787       -2.42454        1.41551
O         -3.22788       -2.78067        1.61478
O         -5.27501       -1.25985        1.11656
O         -0.27130       -1.08166        0.99806
O          1.64702       -2.71457        1.62614
O          4.86714       -0.73685        1.05862
O          6.69189       -2.54077        1.43971
H        -11.32037       -1.41099        1.04412
H         -5.50506       -0.50372        1.45813
H         -0.62988       -0.29971        0.97885
H          4.10569       -0.73867        1.46084
H         -7.77845       -2.11631        2.15352
H         -2.43455       -2.91872        1.92044
H          2.41244       -2.95810        1.93725
H          7.34860       -2.61622        1.99176
O         -8.49073        3.07527        0.50050
O         -6.08513        2.46686        1.28982
O         -3.26308        3.82057        0.93134
O         -1.61169        2.05972        1.88594
O          3.69275        2.01290        1.73213
O          1.94130        3.76617        0.96340
O          6.90863        3.95462        0.89892
O          8.61765        2.11333        1.53190
H         -9.09062        3.65018        0.27375
H         -3.31835        4.61958        1.24771
H          1.84132        4.61221        1.08926
H          6.66971        4.78121        0.93616
H         -5.45716        2.07044        1.72593
H         -0.87412        1.95661        2.31875
H          4.44634        1.95402        2.14508
H          9.20671        1.53037        1.76641
H          7.47992       -4.64426       -2.46246
H          9.32750       -0.20693       -2.43418
H          4.89378       -7.31785       -3.09884
H          8.67269       -2.56500       -3.97642
H         10.71272        0.89671       -4.40065
H         12.70902        5.30299       -4.39238
H          7.31083       -4.77392       -8.11734
H          9.97316       -0.50592       -8.69453
H         12.60734        3.71980       -8.73521
O        -12.90572       -4.13046       -2.62546
O        -11.93812       -2.54527       -4.43779
O        -10.92907        0.13337       -2.98238
O         -9.61071        1.74549       -4.52823
O         -8.85098        4.64474       -3.34584
O         -7.42658        5.87617       -5.13664
H        -11.80198       -2.11421       -5.17067
H         -9.73845        2.11061       -5.29792
H         -7.42601        6.10075       -5.96799
H        -13.16429       -4.52333       -1.90395
H        -11.37416       -0.38085       -2.45380
H         -9.33973        4.23681       -2.76558
O        -12.90652       -3.92839       -7.60112
O        -12.23833       -2.48134       -9.66339
O        -10.49792       -0.54589       -7.63626
O         -9.98175        1.74373       -8.78568
O         -8.22142        3.93856       -7.66731
O         -7.53531        5.89986       -9.21852
H        -13.17623       -3.61197       -6.84704
H        -11.02003       -0.44261       -6.95935
H         -8.94047        4.11094       -7.22579
H        -11.61832       -2.42449      -10.40649
H         -9.44604        2.18278       -9.46476
H         -6.95909        6.16775       -9.95140
