    41
 geometry
 O                    -0.47460479     0.87524672    -0.21242140
 P                    -0.55803791    -0.30115646     0.91812215
 O                     0.89329632    -1.05644776     0.82129361
 O                    -1.32796094    -1.44977837     0.02487011
 C                     0.92752852    -2.11526721    -0.17467715
 C                    -0.53342008    -2.64515173    -0.16728128
 C                     1.34365334    -1.51949805    -1.51080215
 C                     1.95382273    -3.12933971     0.28556738
 C                    -0.81962116    -3.58322740     0.99583974
 C                    -0.96579644    -3.27769168    -1.47360613
 H                     1.50476078    -2.30751041    -2.24739426
 H                     0.59816631    -0.82536232    -1.89588507
 H                     2.28290102    -0.98097583    -1.37887432
 H                     1.76828296    -3.44885975     1.30941173
 H                     1.93635352    -4.00459739    -0.36629238
 H                     2.95087489    -2.69032781     0.23446049
 H                    -0.33058495    -4.54743160     0.85467830
 H                    -0.48390642    -3.15843548     1.94314065
 H                    -1.89555716    -3.74998261     1.05435464
 H                    -0.32692424    -4.13199359    -1.70531706
 H                    -1.99270604    -3.63431703    -1.38631389
 H                    -0.91509627    -2.56793862    -2.29714970
 C                    -0.81487883     2.22285251     0.18064895
 C                     0.42213630     3.13106879     0.04230576
 H                    -2.85051627     1.93761441    -0.41998244
 H                    -1.82474971     2.60316981    -1.69431920
 C                     0.92882907     3.17781439    -1.39793835
 C                     1.52990469     2.59640000     0.95044072
 H                    -2.36376450     3.63263462    -0.35829884
 C                    -2.03192655     2.62917429    -0.62375444
 H                    -1.08357586     2.20967549     1.24465377
 C                     0.05316412     4.54147667     0.50592170
 H                     2.39303374     3.26490810     0.92208704
 H                     1.86027028     1.60491401     0.63825679
 H                     1.18973936     2.53086063     1.98772212
 H                     0.19099406     3.61278196    -2.07488572
 H                     1.18049507     2.17902527    -1.75922479
 H                     1.83058289     3.79196063    -1.45368704
 H                     0.94789358     5.16686665     0.53300838
 H                    -0.37463161     4.52819941     1.51212812
 H                    -0.66478685     5.01737064    -0.16363838
