41
C12H25O3P optimized with ADF in AMS.
O        3.37591286568741      -0.45791577312675      -0.00221649097681
P        2.29699305762526       0.20842948218825      -1.01437321041613
O        1.51401718747056       1.30849198217611      -0.09765222480600
O        1.09754956200685      -0.89737150287008      -0.87991553125120
C        0.42139726763156       0.74770147801960       0.67297332749308
C       -0.10186329653713      -0.38938517114435      -0.25294988120517
C        0.96676354935155       0.23990189786425       1.99911023180380
C       -0.57926570738550       1.85842383868400       0.91419048711654
C       -1.01694690897983       0.11715925467762      -1.35736995394884
C       -0.75896456688911      -1.53514571849599       0.48847961488276
H        0.15429310429392      -0.08118277028314       2.65211531312837
H        1.66001078811502      -0.58809133528514       1.86044669775337
H        1.49903431342013       1.05346561063511       2.49337605838649
H       -0.86751550425490       2.34838559214366      -0.01400432013172
H       -1.47579544068193       1.46236913069508       1.39504392897544
H       -0.14335575618558       2.60560763148851       1.57830965741507
H       -1.98500743020552       0.42366015425558      -0.96018412770538
H       -0.57374127195380       0.96160013709785      -1.88699480827200
H       -1.18104001282035      -0.68892727522764      -2.07311536157779
H       -1.62762519764641      -1.17760817415747       1.04484840340673
H       -1.10163838695641      -2.28478499595119      -0.22561330305936
H       -0.06907356397901      -2.01030444520918       1.18320527032996
C        4.76324350037950      -0.50910508264972      -0.37390362428242
C        5.60039668078221       0.24958989351533       0.67439774261968
H        4.49097376276560      -2.39018320679014      -1.36039267697205
H        4.97432746497590      -2.54154965006009       0.33053673303961
C        5.45189081929025      -0.37065280818989       2.06147578492941
C        5.13019091227008       1.70280676368176       0.71884717802953
H        6.16352291015449      -2.07334500231044      -0.89790752897250
C        5.12610539616618      -1.96437840970427      -0.58242153345501
H        4.88307051635998       0.02387938538142      -1.32689460023288
C        7.06921217387096       0.22606815795413       0.25264768009597
H        5.74371101022953       2.27519482342881       1.41805032511884
H        4.09066984356172       1.77607189076991       1.04034646844709
H        5.21592620869884       2.17359433653367      -0.26470646275182
H        5.84117167647522      -1.39003915939861       2.09452153470869
H        4.40530900986778      -0.39241340851487       2.36941220746324
H        6.00878387032091       0.21883664235183       2.79356295218604
H        7.65564437459740       0.86267878708154       0.91866438970210
H        7.19625571456186       0.60374245023613      -0.76560763252483
H        7.49299250354479      -0.77820352149119       0.29914982551008
