    17
 geometry
 Si                   -0.00003996     0.00052550     0.00071743
 C                     0.89224240     1.52038577     0.67312904
 C                     1.26244410    -1.20618720    -0.71186126
 C                    -1.20159244     0.52530798    -1.35584176
 C                    -0.95419521    -0.83837393     1.39481157
 H                     0.18421741     2.23835290     1.09213116
 H                     1.59551404     1.24402615     1.46141150
 H                     1.45418807     2.02354657    -0.11635631
 H                     1.83746169    -0.74217960    -1.51587651
 H                     1.96487939    -1.53706878     0.05577136
 H                     0.76849274    -2.09111407    -1.11835799
 H                    -1.72673914    -0.33865499    -1.76818533
 H                    -1.95025568     1.21975439    -0.96903603
 H                    -0.67471064     1.02013089    -2.17432078
 H                    -1.48282293    -1.72136364     1.02978035
 H                    -0.28177966    -1.15709408     2.19386995
 H                    -1.69239329    -0.15982444     1.82709344
