41
C12H25O3P optimized with ADF in AMS.
O        3.38145291517671      -0.49095325480855       0.04089403202146
P        2.30640681029178       0.20397800252774      -0.97070714126065
O        1.51868007082943       1.29811008476244      -0.03607700377583
O        1.09458913629666      -0.90554300913137      -0.86308312344616
C        0.40672619677568       0.72331876532454       0.70513497619266
C       -0.11432544160671      -0.38025039084689      -0.25858656805148
C        0.93134078537053       0.17311342595632       2.02292072852998
C       -0.58656289247785       1.83821371879241       0.96143913429986
C       -0.98644649486859       0.16961401617183      -1.37781754036159
C       -0.81540979960179      -1.52776889486358       0.43991688518932
H        0.10772480191533      -0.15822171274617       2.65777555486730
H        1.61840819006736      -0.65813620875983       1.86774358038083
H        1.46644487046950       0.96738957006502       2.54589658572974
H       -0.85482891112032       2.35614693547968       0.04167223676638
H       -1.49514720474335       1.43801685236722       1.41710387532536
H       -0.15393211829002       2.56287642488854       1.65311207263145
H       -1.96081237705438       0.48541672745279      -1.00194289308829
H       -0.51190500790999       1.01827390332704      -1.87384065376670
H       -1.14408706029710      -0.61666194311250      -2.11755943246273
H       -1.69195048299429      -1.16298641225965       0.98026029377777
H       -1.15415585490665      -2.25522918515563      -0.29948955849596
H       -0.15399740415045      -2.03181211152299       1.14294712645210
C        4.76895004975629      -0.53277628036475      -0.35630981682307
C        5.61501637830054       0.26337952083680       0.65731433266784
H        4.49544542793497      -2.44374078006606      -1.28469353395879
H        5.02098161546389      -2.54365326945403       0.39873731993094
C        5.48199049600826      -0.31063402292239       2.06647061936302
C        5.14117211257472       1.71696598072191       0.65781186435282
H        6.17556563813133      -2.09448643352202      -0.87039641547863
C        5.14373436808851      -1.98950866217592      -0.53344449836490
H        4.86354790349705      -0.02372602741306      -1.32524002049405
C        7.08019691952874       0.22892137444912       0.22061977645280
H        5.76007363119895       2.31438132621063       1.33201763631538
H        4.10403331183451       1.79855498652006       0.98761169854690
H        5.21640322589218       2.15534735017425      -0.34222865401097
H        5.87051337775587      -1.32975548176852       2.12865538094443
H        4.43810285476527      -0.32033139083438       2.38641070896577
H        6.04832188693211       0.30214290705386       2.77274167642186
H        7.67175347590478       0.89185851276467       0.85682199607561
H        7.19546285838056       0.56956297040941      -0.81274176703597
H        7.50805871990814      -0.77233597470668       0.29961706541347
