   156
 geometry
 O                     3.12803443     0.09923435    -2.01005791
 H                    -2.81807943     5.59515418    -2.22454998
 H                     4.93733065    -7.14437715     3.25815131
 Si                   -3.37460659     8.12990932     2.10706732
 Si                    0.93271037     5.92380794    -2.16811472
 Si                    5.48588260     5.78111696    -1.52278497
 H                     2.50305414    -5.99019254    -1.69874812
 Si                   -4.14687170     4.44620838    -0.75206463
 Si                    2.30063136     2.65334156    -2.37381052
 Si                    3.78012554     0.85004821    -0.69791953
 H                    -8.24338569    -5.79902566    -4.35162391
 Si                   -6.49407913     0.03778745    -2.74358419
 Si                    2.18582070    -2.29046969    -2.27064030
 Si                    3.37412463    -4.18697257     1.09316443
 H                    -0.87111557     4.52716161    -1.66416503
 Si                   -8.65087590    -6.34071100    -2.12525174
 Si                    0.80805207    -7.68126897    -1.54796628
 Si                    3.05436077    -7.94832916     4.33251984
 O                    -5.88867934     0.23713458    -4.42454834
 O                     1.15800907     5.01274657     3.93826866
 O                     5.65852935     4.84701955     2.80416585
 O                     0.22167323    -7.89338181    -3.06943665
 O                     4.09171371    -2.37593237    -1.80817775
 O                    -1.37777575     2.53312043     2.01340625
 O                     2.39294413     2.07510463     3.19229617
 O                     2.49855526    -8.84621797     3.04854439
 O                     4.74757594    -5.21207180     1.17289286
 O                    -3.64356224    -2.24753067     0.47300941
 O                    -1.29599132    -2.63313442     3.17845240
 H                    -5.55870001     1.16427690    -4.67699621
 H                   -10.94973892    -7.13769676    -1.25205665
 O                     2.56237453    -4.70875003    -0.24480537
 O                     3.66149283     1.97675173    -3.49533031
 O                    -3.57494762     4.13834321     3.27625637
 O                    -7.10458140    -1.72309755    -2.31263566
 Si                   -4.13727440    -3.79237422     0.06841270
 Si                   -0.95559131    -4.27305791     2.84743970
 O                     1.44181739     4.59905554     1.25168757
 O                     5.55087014     3.11297124     0.79837342
 H                     5.26630943    -5.36878354     0.37394498
 H                    -4.53987631     7.83998065     0.18311947
 Si                   -2.60377392     4.89102672     2.13381466
 O                    -7.85778230    -4.84688118    -1.57820605
 O                    -0.24970768    -6.57304436    -0.80243725
 O                    -8.26618469    -6.66889181    -3.75876596
 Si                    2.35179182     4.85564649    -0.04688849
 O                    -0.77410758    -4.47061238     1.11653871
 H                    -0.19949929    -7.45230076    -3.85678910
 H                     2.71286199    -3.83512458     5.93475161
 Si                    5.84908131     2.77163045    -0.52666149
 O                    -2.79933023    -4.92865708    -0.65125479
 O                     2.25490874    -6.79236304    -1.22147380
 O                     1.82188927     6.25477305    -0.77629369
 O                     2.53625425    -4.43362825     2.39234050
 O                    -6.20362063     0.96277699     0.75710394
 O                     4.67357364    -7.54242341     4.10951709
 O                     5.77907351     4.21706649    -1.22865609
 H                    -4.82779511     8.21231413     4.00049593
 O                    -0.29763278     1.37444316     0.07845865
 H                     2.34811019     0.26862962    -2.53666223
 H                     2.59478936    -1.56108036    -4.94577637
 O                    -8.15643142    -7.82956922    -1.34634578
 O                     3.74711235    -0.10765706     2.43909143
 H                    -4.44053083    -4.44266499     2.41257779
 O                    -4.81095517     2.97110014    -0.51820583
 O                     0.84770414    -9.15902925    -0.72832405
 H                    -2.42861392    -5.65456912     4.16184159
 O                     2.77209612    -8.63886763     5.85562241
 H                     7.73019325     1.81497990    -1.71889895
 H                     6.71050017    -1.55806879     0.97975792
 H                    -8.38365811    -3.21530780     0.86678264
 H                     1.11014117     5.93572899     4.19274721
 H                     6.47396233     5.34043250     2.67362041
 O                    -3.22330559     4.49000191     0.64834129
 O                     2.19264160     3.94263592    -1.39426947
 H                    -0.52807354     3.01858203     1.95314400
 H                     3.22740007     2.52504444     3.10507494
 O                     2.11864455    -3.76502384     5.16273384
 O                     0.41423434    -4.64207448     3.56423433
 O                   -10.33482207    -6.43248049    -1.52773229
 O                     0.11343610     4.45086962    -1.86244290
 H                    -6.20147510     5.62523311    -0.98164210
 O                     4.66232024     2.04650672    -1.03244396
 O                     0.68290827     2.52678034     2.84859215
 O                     3.65780113     3.09587755     2.81828544
 O                     4.01277125     5.83754127    -0.63431638
 H                    -2.75681298    -1.80465842     0.49375173
 O                    -1.35456026    -0.38255964     1.54487876
 O                     1.29790773    -0.32901227     3.65726315
 H                     4.19400177     2.61692440    -4.05068057
 O                    -1.00586304     4.59426991     2.34185018
 O                    -4.77379796    -4.40863490     1.51384643
 O                    -2.12189853    -5.40283520     3.28916467
 O                    -5.25922775     5.75113803    -0.78981834
 O                     3.75957230     4.53104492     0.61741486
 H                    -0.59095058    -2.16330113     3.68460275
 O                    -5.65796776    -3.51049582    -0.55115239
 O                     0.97508488     2.85060653    -3.32482635
 H                     4.64712569    -1.62849557    -2.10964855
 H                    -3.53824077     3.19040999     3.45952768
 O                     7.35455481     2.13617416    -0.88648792
 H                     2.49212629    -8.96111058     2.04255281
 O                    -5.40047610     0.40380088    -1.46379662
 O                    -7.76816190     1.22721275    -2.60928321
 H                    -6.34383632     0.10333586     1.17448419
 Si                   -7.11046093    -3.26774210    -1.21870978
 O                     1.17489535    -0.86028370    -1.51041553
 O                     2.02790956     1.54188109    -1.33127443
 O                    -3.29829612     1.24916885     0.43886697
 Si                   -0.83763982    -4.95089699    -0.56274439
 H                     3.74553667     6.52539711    -0.01441062
 H                     1.33828982    -1.07221763     4.30520262
 H                     1.52264822     2.05556895     3.00575633
 Si                    1.97688091    -4.83116157     3.81202207
 O                     0.78834257    -3.79460852    -1.42941556
 O                    -4.58387633     8.61192088     3.16334618
 O                     3.29084126     1.34285604     0.25692125
 H                     1.91878736    -4.24564505    -0.83002057
 O                     3.91059684    -2.55250003     1.15820839
 H                    -8.73616274     1.19535976    -2.61456293
 H                     1.66573972     5.23351164    -4.26429726
 Si                   -4.88764307     1.38258106    -0.21544801
 H                     0.31080783     3.59370530    -3.11321101
 H                     4.58021853     5.84752507    -3.81920011
 O                    -1.97131438     9.03480099     2.27283289
 Si                    1.05418117     0.56156154    -0.53674871
 O                     1.69533599     0.34712125     1.06913663
 O                    -3.76030514     8.40880823     0.48366020
 O                    -0.19305181     7.13485150    -2.56811608
 Si                    4.41530583    -0.88837907     1.24569681
 H                     4.05563230     1.76691806     0.61778936
 O                    -8.07454805    -2.72756462     0.09428299
 O                    -3.22549299     4.71995546    -2.17085305
 O                     2.01811983     5.53722249    -3.42292271
 O                     6.07090765    -1.04414982     1.47724427
 O                    -3.02727239     6.51359769     2.42452891
 O                     6.62731017     6.96456638    -1.06845495
 O                     5.25451691     6.09625012    -3.15128655
 Si                    0.54513615     4.21812496     2.61799016
 Si                   -1.68099639     1.17854386     1.10040539
 H                    -1.45617540     9.71042670     1.80796106
 H                     0.09723132     8.02361103    -2.80133786
 Si                    4.74767495     3.90142027     1.74545201
 Si                    2.33754876     0.47499096     2.66785026
 H                     7.35919955     7.35126873    -1.60042827
 O                     2.44635968    -6.33224277     4.39288029
 O                     2.66104254    -2.32290650    -4.15089808
 H                     3.98439039     2.51959361     3.53047698
 O                     4.11384201    -0.00523543     0.29073838
 H                    -0.42896282    -0.59311205     1.89388494
 H                     2.97219237    -9.52624451     6.16052339
 H                     1.19581226    -9.30066273     0.15823633
 H                    -7.54324489    -8.43056679    -1.80706077
 At                    2.66699307     2.45336090     1.03489338
 O                     2.41882739     3.98488281     1.46065483
 H                     2.10918072     4.46818282     2.16596879
