1
Cn optimized with Band in AMS.
 Cn       0.00000000000000       0.00000000000000       0.00000000000000
VEC1       0.00000000000000       2.34680677302606       2.34680677302606
VEC2       2.34680677302606       0.00000000000000       2.34680677302606
VEC3       2.34680677302606       2.34680677302606       0.00000000000000
