42

P       0.00000000       0.00000000       0.00000000
O       1.21940404       0.77862878      -0.43870761
S      -1.82579057       0.89950177      -0.68968608
O      -0.08178322      -1.56371204      -0.51847165
C      -0.18923781      -0.29475187       1.78447245
H       0.67944583      -0.87187847       2.13450662
H      -0.22574625       0.67518282       2.29881024
H      -1.11411950      -0.85635209       1.97680326
C       0.15089719      -1.85123807      -1.91870058
C       0.22495537      -3.35653567      -2.07621213
H       1.08784971      -1.36322017      -2.23294303
H      -0.67795802      -1.42605990      -2.51077799
H       0.39265976      -3.61578117      -3.13371575
H       1.05243762      -3.77181688      -1.48051348
H      -0.71223622      -3.83095826      -1.74642421
C      -1.10842102       2.44890553      -1.42395355
C      -0.90973684       3.57991993      -0.40488465
H      -1.81289769       2.74734823      -2.21413685
H      -0.15450541       2.16886976      -1.88767419
H      -1.89542342       3.92253991      -0.05784620
H      -0.39082954       3.17447022       0.48630300
N      -0.17789425       4.68037847      -1.01252699
C       1.28958742       4.52548546      -0.97523968
C       1.97321051       5.08164397       0.28818226
C       1.94214778       5.08063102      -2.24777163
H       1.46113212       3.43665906      -0.97203352
H       1.51987955       4.67174346       1.20476770
H       3.04087521       4.80752087       0.29604403
H       1.91457514       6.18162492       0.33714160
H       1.47982224       4.63733968      -3.14265569
H       1.84097828       6.17671516      -2.32046923
H       3.02009835       4.85194259      -2.26072144
C      -0.74922622       6.03123920      -0.89356429
C      -1.14098501       6.47056965       0.53253259
C      -1.93794996       6.19610093      -1.85283511
H       0.04068853       6.71754772      -1.23902155
H      -0.30081024       6.37822076       1.23521951
H      -1.46675031       7.52396501       0.53082571
H      -1.97979019       5.87391175       0.92745442
H      -1.63817010       5.95667313      -2.88395147
H      -2.76949794       5.52482368      -1.57740149
H      -2.32793846       7.22708629      -1.82843027
