    37
 geometry
 O                     0.21774792    -0.76145356     0.03220239
 P                    -0.30277778     0.42835094    -0.98448215
 O                     0.92181372     1.53060388    -1.01706620
 O                    -1.18060514     1.28162385     0.12194530
 C                     0.87236594     2.49598151     0.09133945
 C                    -0.66324591     2.63175053     0.36471907
 C                     1.65853597     1.92148513     1.27076526
 C                     1.53429105     3.77490072    -0.40266107
 C                    -1.37374531     3.57333969    -0.60900168
 C                    -1.01202531     2.99707270     1.80145831
 H                     1.75718620     2.66169738     2.06380145
 H                     1.18849975     1.03062928     1.67893149
 H                     2.65847950     1.65707843     0.92894393
 H                     1.10392193     4.11342659    -1.34155892
 H                     1.42493680     4.56608238     0.33940443
 H                     2.59901084     3.60055831    -0.55427380
 H                    -1.11349225     4.61249985    -0.41331190
 H                    -1.12589323     3.34272087    -1.64425117
 H                    -2.44969082     3.46248061    -0.48102979
 H                    -0.57770255     3.96322078     2.05951087
 H                    -2.09351552     3.07283928     1.90719206
 H                    -0.64857642     2.25253070     2.50487631
 C                     0.47920383    -2.07092868    -0.51778501
 C                    -0.33364525    -3.09676258     0.26170538
 N                    -0.08266036    -4.46585915    -0.18961001
 C                     1.20644660    -4.97665769     0.27490666
 H                    -2.11146698    -5.00273819    -0.17109888
 H                     1.36075164    -5.98159219    -0.11656650
 C                    -1.16195338    -5.35868796     0.22669768
 H                     0.20737536    -2.10138583    -1.57474345
 H                     1.54930386    -2.25097411    -0.43421705
 H                    -1.38991400    -2.87433451     0.10847095
 H                    -0.12977681    -2.97939241     1.33801874
 H                    -1.25167741    -5.42977119     1.32249666
 H                     1.26182587    -5.02311875     1.37442544
 H                     2.02173042    -4.34969600    -0.08004360
 H                    -0.97812865    -6.36023885    -0.16167056
