24

C      -0.62848381      -1.17026720       0.47286120
C       0.66784391      -1.24618434      -0.08592286
C      -0.68565824       1.25319097       0.01055608
C       0.61065578       1.17725282      -0.54826189
C      -1.27084344       0.07726987       0.50560456
C       1.25308928      -0.07024427      -0.58084230
C      -1.32220789      -2.39976131       1.02847615
C       1.42167289      -2.56092533      -0.15434886
C      -1.43955590       2.56789820       0.07883201
C       1.30429970       2.40670843      -1.10406915
H      -2.27178284       0.13570620       0.93630521
H       2.25395863      -0.12871263      -1.01170081
H      -2.31611603      -2.14872136       1.41593676
H      -1.44722486      -3.17776959       0.26121301
H      -0.74731590      -2.85531645       1.84806021
H       2.40449962      -2.42667665      -0.62012239
H       1.57921179      -2.99167974       0.84542731
H       0.87317622      -3.31406499      -0.73883851
H      -1.59725858       2.99845903      -0.92100320
H      -2.42231138       2.43367673       0.54476114
H      -0.89102160       3.32117730       0.66310500
H       1.42927953       3.18483932      -0.33692440
H       2.29821748       2.15567230      -1.49150755
H       0.72936715       2.86210669      -1.92371271
