17

Si       0.00010000      -0.00010000       0.00010000
C      -0.92310000      -0.17140000      -1.62330000
C       0.88830000       1.65100000       0.04270000
C       1.25190000      -1.38740000       0.15680000
C      -1.21720000      -0.09220000       1.42360000
H      -1.44950000      -1.12940000      -1.66920000
H      -1.65980000       0.62960000      -1.73510000
H      -0.23080000      -0.12030000      -2.46880000
H       1.60440000       1.72600000      -0.78090000
H       0.17520000       2.47580000      -0.04760000
H       1.43420000       1.77200000       0.98310000
H       1.80260000      -1.30640000       1.09860000
H       0.75430000      -2.36140000       0.13400000
H       1.97290000      -1.35210000      -0.66530000
H      -0.69900000       0.00580000       2.38220000
H      -1.95780000       0.70990000       1.35130000
H      -1.74730000      -1.04910000       1.41750000
