     8
 geometry
 P                     0.00000000    -0.00000000     0.18447910
 O                    -1.27472046    -0.64026704    -0.52529059
 O                     0.08287271     1.42407382    -0.52529059
 O                     1.19184775    -0.78380678    -0.52529059
 O                     0.00000000     0.00000000     1.65823608
 H                    -1.44853616    -1.54504125    -0.23387670
 H                    -0.61377689     2.02698973    -0.23387670
 H                     2.06231305    -0.48194849    -0.23387670
