30

Au       0.01378134       0.04017612       0.24486453
Au       1.44993312       0.85939208      -2.22479298
Au      -1.43270472      -0.81710954      -4.59090557
Au      -4.31074954       2.53736188       0.24264690
Au       1.45373751       2.53749517       0.24297865
Au      -7.19801965      -4.13398440      -2.22439676
Au      -4.32381623      -2.49635646      -7.06076233
Au      -2.86888271       0.04051162       0.24220483
Au      -2.87057889      -4.95214176       0.24208890
Au      -1.43287824      -4.13389233      -2.22514208
Au      -4.31613942      -0.82024912      -4.59218822
Au      -2.87309914      -1.63723479      -2.22987847
Au      -1.42958324      -2.45575089       0.24318041
Au       0.00882069      -1.63735935      -2.22407832
Au      -2.87655516      -3.31663956      -4.59096280
Au       2.89587926       0.04088648       0.24285528
Au      -7.19349852      -2.45562920       0.24367136
Au      -4.31077944      -2.45588130       0.24169893
Au      -1.43160931       0.85963620      -2.22468094
Au       4.33630418       2.53731084       0.24267220
Au      -5.75240152      -4.95188275       0.24331501
Au       0.01238261      -4.95233359       0.24357072
Au      -5.75582351      -1.63789726      -2.22590418
Au      -4.31428484       0.85802789      -2.22707345
Au      -4.31548679      -4.13450522      -2.22579118
Au       1.45384252      -2.45599088       0.24479937
Au      -5.76235065      -3.31354644      -4.58983639
Au      -8.63480001      -4.95201432       0.24388425
Au      -1.42787208       2.53738772       0.24303252
Au      -5.75198733       0.04089373       0.24197017
