1
Ts optimized with Band in AMS.
 Ts       0.00000000000000       0.00000000000000       0.00000000000000
VEC1       0.00000000000000       2.83701960306676       2.83701960306676
VEC2       2.83701960306676       0.00000000000000       2.83701960306676
VEC3       2.83701960306676       2.83701960306676       0.00000000000000
