32
XYZ file generated by gabedit : coordinates in Angstrom
N         -2.1628940000         -0.0211090000          0.1968630000
C         -2.8718940000         -1.2126090000          0.1196630000
C         -2.8345940000          1.1927910000          0.1403620000
C         -4.2466940000         -1.1911090000         -0.0307370000
C         -4.2092940000          1.2155910000         -0.0102380000
C         -4.9088940000          0.0229910000         -0.0961370000
C         -0.7046940000         -0.0479090000          0.3950620000
C         -0.0714940000         -1.2484090000         -0.2676370000
C         -0.0338940000          1.1813910000         -0.1715380000
O         -0.7622940000         -2.1541090000         -0.6759370000
O         -0.6965940000          2.1311910000         -0.5200380000
O          1.3219060000          1.2187910000         -0.2573370000
O          1.2800060000         -1.2991090000         -0.4021370000
C          2.0269060000          2.3258910000          0.2758630000
C          3.4924060000          2.2970910000         -0.1479370000
C          2.0129060000         -2.2804090000          0.3091630000
C          3.4678060000         -2.3124090000         -0.1464380000
H         -2.3334940000         -2.1830090000          0.1833620000
H         -2.2664940000          2.1454910000          0.2229630000
H         -4.8158940000         -2.1449090000         -0.0931370000
H         -4.7490940000          2.1861910000         -0.0605370000
H         -6.0127940000          0.0409910000         -0.2093380000
H          1.5631060000          3.2650910000         -0.1004380000
H          1.9580060000          2.2976910000          1.3859630000
H          4.0005060000          1.4066910000          0.2806620000
H          3.5416060000          2.2469910000         -1.2573380000
H          4.0144060000          3.2119910000          0.2075620000
H          1.5559060000         -3.2769090000          0.1206620000
H          1.9676060000         -2.0521090000          1.3966630000
H          3.9846060000         -3.2017090000          0.2765620000
H          3.4932060000         -2.3631090000         -1.2570380000
H          4.0001060000         -1.3979090000          0.1925630000
 
