   154
 geometry
 O                     2.15926761     1.12298977     4.48657618
 H                    -1.21532890    -4.97750510     1.38409320
 H                     3.71581398     6.38529950    -0.86780786
 Si                   -0.81459957    -7.48506021    -3.90323788
 Si                    1.32998065    -8.16165321     0.17556316
 Si                    1.56331338    -3.22634410     2.13793991
 H                     0.65673672     5.68700797     0.34966744
 Si                   -3.19407304    -4.06091051     0.02412089
 Si                   -0.52180861    -1.83423217     2.07254157
 Si                    2.37951424     0.23500180     3.39722785
 H                    -1.40686304     5.27621849     3.15238898
 Si                   -4.19597272     0.17854923     3.01811645
 Si                   -1.05127231     2.50878197     1.60338050
 Si                    2.06711029     3.18636702     0.74310239
 H                    -0.86329282    -8.83965107    -0.98205732
 Si                   -3.76370784     6.28287199     3.20381184
 Si                   -1.38662085     6.73109528    -0.50596439
 Si                    2.22681791     5.83718932    -3.01825973
 O                    -2.55817166     0.67216054     3.52911202
 O                     2.43187731    -2.33041410    -4.64495070
 O                     6.29251971    -3.45465526    -0.13121815
 O                    -2.15665982     6.66259563     1.00010281
 O                     0.50436371     2.55651002     2.26593058
 O                    -1.70876313    -1.65142927    -3.15891139
 O                     2.74802372    -1.13061562    -1.34131298
 O                     0.78818642     5.84645561    -2.24446720
 O                     2.28495853     4.83604730     1.01893978
 O                    -4.71902648     0.53575349    -1.23086094
 O                     0.45036113    -0.57438439    -1.50306545
 H                    -1.59298270     0.26540967     3.68260262
 H                    -4.21015179     7.59554719     5.61273994
 O                     0.74150807     2.64118798     1.43167510
 O                    -0.01152617    -1.29199033     4.04697710
 O                    -2.89030946    -2.81513742    -4.51133124
 O                    -4.76109642     1.73739538     3.12115371
 Si                   -4.68315517     2.33085832    -1.09026132
 Si                    0.12901709     1.08855613    -2.82050928
 O                     1.69260795    -3.25881148    -1.81747115
 O                     4.99868431    -2.05804117     2.01962835
 H                     2.23955469     5.52405083     1.77867316
 H                    -1.91692903    -8.04936744    -0.59895992
 Si                   -1.68111548    -3.71763996    -3.41274087
 O                    -4.70047251     4.67406082     2.74788247
 O                    -1.83296241     5.28415121    -1.30387150
 O                    -2.04094038     6.06144736     2.92894106
 Si                    1.98736851    -3.91116496    -0.22498906
 O                    -0.82854716     2.34488198    -1.77377060
 H                    -2.38507272     6.05583532     1.79700698
 H                     5.16812550     1.50733726    -2.36928649
 Si                    3.97593407    -2.07570916     3.44744813
 O                    -3.29129219     2.93692976    -1.00738169
 O                     0.23808606     6.34887675    -0.30015416
 O                     1.82346274    -6.06481277    -0.09097255
 O                     2.31685882     2.76896708    -0.68626017
 O                    -6.12594956    -1.23037258    -0.60306042
 O                     3.36954651     6.51653003    -1.88800106
 O                     2.66464512    -2.71535723     2.92223251
 H                    -2.53397690    -7.77277842    -6.07214258
 O                    -1.20799713    -0.45846586    -0.90148006
 H                     1.61991829     1.37800455     5.24010734
 H                    -2.48858886     1.45712104     2.95381647
 O                    -3.98214753     7.70187344     2.01830922
 O                     3.35365929     0.97486722    -0.08080172
 H                    -5.96515988     3.17933959    -3.23921155
 O                    -4.26782182    -2.80083315     0.09442258
 O                    -1.60110845     8.19223156    -1.45330108
 H                    -0.63020307     0.29563040    -5.47022438
 O                     2.15941238     6.59230960    -4.58260914
 H                     5.03373927    -2.54281723     5.72369191
 H                     5.94512294     1.88295396     1.82846989
 H                    -8.07722309     3.33239534     2.67955580
 H                     2.97806597    -2.91598984    -5.50102705
 H                     6.83600881    -4.34468269     0.15134557
 O                    -2.38999333    -3.82922359    -1.64826472
 O                     0.43011794    -3.07671839     1.10017505
 H                    -0.86282403    -2.10632445    -3.32346699
 H                     3.28029768    -1.73455182    -0.81017022
 O                     4.17426871     1.50491028    -2.16267975
 O                     1.53251203     1.76416661    -2.89025468
 O                    -4.13645342     6.77968906     4.99396384
 O                    -0.34926339    -8.48822090    -0.10989251
 H                    -4.91585922    -5.92490234     0.29647253
 O                     3.09294155    -0.77943699     3.42320990
 O                     0.84442494    -0.34721769    -2.55796589
 O                     5.03014331    -0.70251976    -0.67037088
 O                     1.37812763    -2.12547446     0.26891103
 H                    -4.21595487    -0.27083466    -1.41675157
 O                    -2.34424685     1.03178683    -2.65690336
 O                     2.20191088     1.22408928    -2.38981617
 H                     0.21150748    -1.86346108     4.63144872
 O                    -0.17960703    -2.97276553    -3.37230011
 O                    -5.66260877     3.09342695    -2.28742410
 O                    -0.61729921     0.79344052    -4.47828116
 O                    -3.98199457    -5.57468815    -0.00054636
 O                     3.55560064    -3.20264551     0.10265880
 H                     1.27274127    -1.00899983    -0.91659993
 O                    -5.22038514     2.73819078     0.59930737
 O                    -1.95509656    -2.31575417     2.09345304
 H                     0.74030812     1.81784002     2.76419429
 H                    -3.36288666    -1.86121675    -4.81204350
 O                     4.91899719    -2.41959171     4.71219972
 H                     0.40188546     5.62120620    -1.35924813
 O                    -4.26564213    -0.37563693     1.37251621
 O                    -5.04283430    -0.97185174     3.98131719
 H                    -6.80948463    -0.65323640    -1.03631942
 Si                   -5.54471721     3.09650197     2.29645874
 O                    -0.98811100     1.30383248     0.63629366
 O                    -0.12098282    -0.80703094     1.17218059
 O                    -3.58635832    -0.92815598    -1.34653531
 Si                   -1.85990989     3.58982229    -0.87989044
 H                     1.17520024    -2.30421957    -0.80973945
 H                     2.71301170     2.00691268    -2.66868479
 H                     1.27513362     0.57540410    -2.18360445
 Si                    2.74007300     2.59551468    -2.20569648
 O                    -1.25338451     3.69819387     0.66269966
 O                    -1.86463554    -8.09598476    -5.15050783
 O                     0.72002194     0.06325715     2.89426707
 H                     0.67513548     1.74363474     1.88006784
 O                     3.12334447     2.64050613     1.20715846
 H                    -5.71772118    -1.09653333     4.64339226
 H                     0.97144753   -10.27345237     2.72106512
 Si                   -4.53440466    -1.32340917    -0.10172301
 H                    -2.35436905    -3.08793523     1.61650405
 H                     0.78142166    -1.53958121     2.71875087
 O                     1.10093982    -8.13993718    -4.50128716
 Si                   -0.36624990     0.05097816    -0.06071697
 O                     1.04202186     0.25140995    -0.71463442
 O                    -0.97298045    -8.28936395    -1.71124423
 O                     2.36825495    -9.29926429    -1.25890615
 Si                    3.76316109     1.57905938     1.19536134
 H                     0.42428267    -0.67508425     2.46532723
 O                    -7.18806147     2.97306740     2.81836160
 O                    -1.92016952    -4.36314575     1.27392328
 O                     1.20857850    -9.14362937     2.19549468
 O                     5.16491587     1.57484134     1.38928622
 O                    -1.30565730    -5.45081102    -3.94807941
 O                     1.43453993    -4.62046111     2.17509377
 O                     0.52280152    -2.43830699     2.82579663
 Si                    1.24065290    -2.27164701    -3.20645814
 Si                   -2.27801111    -0.49629830    -2.12064588
 H                     2.10350066    -8.97699291    -4.06756817
 H                     3.32530972    -9.73993056    -1.56795482
 Si                    5.01416461    -2.34957401     0.29491004
 Si                    2.35561361     0.32261086    -1.29320510
 H                     1.03718363    -5.04412264     2.86657768
 O                     2.68176340     4.07970513    -3.06529151
 O                    -1.96528644     2.18117663     2.69268233
 H                     5.67892670     0.15056062    -0.91837033
 O                     3.12879340     0.89980430     2.22489964
 H                    -1.60954365     1.59344300    -2.95676620
 H                     1.89309833     7.58754060    -5.10161908
 H                    -1.32268213     8.75581140    -2.25815832
 H                    -3.50389791     8.33577242     1.19669253
 At                    1.46497231     0.79439584     1.30186311
