   154
 geometry
 O                     4.89539800    -0.24070342     1.26337903
 H                    -1.53849885     5.08357500    -2.02110743
 H                     2.28095345    -7.72013309     4.07487055
 Si                   -4.96199900     7.53341214    -0.36329926
 Si                    0.36122066     7.20550156     0.10998278
 Si                    1.69442355     3.72729579     1.12761897
 H                     2.02503684    -6.11849357     0.72761338
 Si                   -3.63322605     3.97872486    -2.51860300
 Si                    0.99816138     2.09343958    -0.27287376
 Si                    3.51134060     0.31903242     1.92984733
 H                     2.83839808    -2.63752679    -4.07380491
 Si                   -0.94262642     0.59468506    -4.70912177
 Si                    1.00551544    -2.40439892    -0.82182007
 Si                    1.98719137    -4.68895285     2.63232342
 H                    -1.31821859     7.25491347    -1.65711382
 Si                    2.14026285    -4.08846387    -5.84631177
 Si                    1.02949011    -7.16976141    -1.18622241
 Si                    0.10020980    -8.53250880     3.63073608
 O                     0.34571001     0.93190862    -3.67187245
 O                    -3.58203898     4.46430397     4.41876113
 O                     1.98926615     5.43808470     5.87562927
 O                     2.00318248    -6.58195371    -2.39755923
 O                     2.27264825    -2.26710247     0.28394230
 O                    -4.70669607     0.67898568     0.93346298
 O                    -1.20143179     0.29299641     4.65356994
 O                     0.13014636    -8.57010578     1.97890005
 O                     3.02863094    -5.95520509     3.00652090
 O                    -3.82573648    -2.36922626    -3.05121564
 O                    -3.12621662    -2.92751057     2.15262151
 H                     0.43939951     1.67573926    -3.04335962
 H                     3.67761243    -4.11094644    -7.71543258
 O                     2.04170570    -4.60728046     0.99822254
 O                     2.88483384     1.83105283    -0.43045740
 O                    -6.56078194     3.66604380     0.51859831
 O                    -0.51762182    -0.87380366    -5.42096479
 Si                   -2.87966959    -3.63890841    -3.52562810
 Si                   -2.89376109    -4.55621392     1.73865026
 O                    -1.60162350     4.23259330     2.57883736
 O                     3.06625673     3.59042777     4.37956982
 H                     3.89187296    -6.14856510     2.66312183
 H                    -4.34453667     6.72508230    -2.54493690
 Si                   -5.08395388     4.40094086     0.38145112
 O                     0.65153900    -3.33866356    -5.87426368
 O                    -0.42250062    -6.32728815    -1.19565189
 O                     2.89830913    -3.52586347    -4.44023903
 Si                   -0.02182689     4.53784831     2.08149565
 O                    -1.86231395    -4.60247727     0.35955990
 H                     2.26151820    -5.71721879    -2.70150013
 H                    -0.92652139    -4.82551425     6.18941676
 Si                    3.90516697     3.08598968     3.13608654
 O                    -1.92671757    -4.21315211    -2.29313857
 O                     1.59458362    -6.90963166     0.37054610
 O                     0.16242526     6.07813524     1.35411398
 O                     0.53459181    -5.07575872     3.22157799
 O                    -5.02697389     0.43457597    -4.23801153
 O                     1.61845791    -8.36820443     4.25253650
 O                     2.96138409     3.40267273     1.91460227
 H                    -7.28543634     8.33073804    -0.40572719
 O                    -2.22741831     0.01621798     0.25351010
 H                     5.36895084    -0.19768224     0.44985314
 H                     1.27637714    -1.04697303    -2.77782471
 O                     2.08576630    -5.74572471    -5.76508883
 O                     0.77616457    -1.43796876     4.27529151
 H                    -4.57579154    -5.37000726    -3.96582649
 O                    -3.83461951     2.58025967    -3.13165023
 O                     0.83006258    -8.80666720    -1.42244679
 H                    -5.13873421    -5.47152357     1.82690288
 O                    -0.66592307    -9.89449997     4.19928502
 H                     6.35113630     3.40296579     2.91487241
 H                     3.94767148    -2.04638650     5.86780993
 H                    -1.79615249    -3.08691580    -8.01165651
 H                    -3.87475683     5.32538958     4.76719741
 H                     2.56682942     6.19200547     5.86477012
 O                    -4.24407553     4.07295069    -1.07772119
 O                     0.48958424     3.43854784     0.65359052
 H                    -4.42417646     1.06175367     1.78692370
 H                    -0.62187334     0.93179196     5.08026785
 O                    -1.06545450    -4.61244201     5.28258834
 O                    -2.10265642    -5.16761454     2.95799277
 O                     3.00368338    -3.68354535    -7.23108437
 O                    -0.51631026     6.88773968    -1.26574743
 H                    -4.69262593     5.29810973    -4.23128110
 O                     3.63771893     1.64226572     2.62958316
 O                    -3.11824140     2.08974245     3.18434283
 O                     0.91331052     2.99907511     5.91259325
 O                     0.14548507     2.91679127     1.86525998
 H                    -4.17891271    -1.81553198    -2.29254135
 O                    -4.03410008    -1.83796986    -0.08898409
 O                    -1.75228285    -2.35696172     4.05928202
 H                     3.51415866     2.59244766    -0.50441065
 O                    -4.12649033     4.07922572     1.68456832
 O                    -3.79635176    -4.87766265    -4.15675472
 O                    -4.33650145    -5.29541833     1.40342984
 O                    -4.32721788     5.27946134    -3.36391286
 O                     0.90304353     4.38050379     3.51750184
 H                    -2.72587229    -2.51072191     2.98282466
 O                    -1.74553264    -3.04101152    -4.70049174
 O                     0.43324974     2.26753317    -1.79572393
 H                     2.64294565    -1.44745981     0.42557285
 H                    -6.82881430     2.78973948     0.69544998
 O                     5.49977161     3.50070059     3.35679904
 H                     0.46907822    -8.15214559     1.18464129
 O                    -2.30956397     0.54223233    -3.79598944
 O                    -1.14281399     1.79382679    -5.84593046
 H                    -5.41836879    -0.40895052    -4.47487380
 Si                   -0.76967003    -2.47492033    -5.86279134
 O                    -0.10825246    -1.46459662    -0.29283163
 O                     0.37154384     0.83394667     0.44731452
 O                    -3.98974056     0.32183838    -1.66124981
 Si                   -0.97308739    -4.76771680    -0.99714914
 H                    -0.89989320     3.18442483     1.98045959
 H                    -1.65215160    -3.23492721     4.50278049
 H                    -2.58454485     1.51292721     3.73999914
 Si                   -0.84612072    -5.57772310     3.90510252
 O                     0.38263486    -3.88087384    -0.89811600
 O                    -6.37491170     8.32549969    -0.70428492
 O                     2.36525675     0.42378489     0.62155938
 H                     1.93841373    -3.84859737     0.34509504
 O                     2.43217238    -3.31693723     3.41525174
 H                    -0.94657149     1.87288883    -6.77982759
 H                     2.48277095     7.63680911    -0.95183536
 Si                   -3.83550176     0.91870886    -3.19488084
 H                    -0.21868329     2.92717297    -2.11003603
 H                     2.03937203     2.11352764     0.58844406
 O                    -3.92941051     8.38753658     0.61519951
 Si                   -0.74821748    -0.36161590     0.66272397
 O                    -0.74169289    -0.80329590     2.24693461
 O                    -4.08066118     7.25693980    -1.78167877
 O                    -0.10592567     8.73180710     0.64059793
 Si                    2.35611444    -1.81937713     4.04584736
 H                     1.75856297     1.15682871     0.50366294
 O                    -1.47271885    -2.45253301    -7.36571525
 O                    -1.94392825     4.22712174    -2.38290555
 O                     2.02302181     7.14276904    -0.32952486
 O                     3.12105158    -1.78244897     5.47692563
 O                    -5.32023144     6.04233028     0.27308486
 O                     1.42463218     5.25612591     0.66832877
 O                     1.95422716     2.87634371     0.22013455
 Si                   -3.10603307     3.74999675     3.00067733
 Si                   -3.79795744    -0.20950344    -0.12339112
 H                    -3.10990579     8.83551101     0.49673276
 H                     0.15421598     9.30026077     1.30158535
 Si                    1.74266163     4.09764375     4.93891463
 Si                   -0.75729815    -1.08079590     3.86477030
 H                     1.65634604     5.84721498    -0.11036010
 O                    -0.73606661    -7.15335341     4.14126200
 O                     1.55020841    -1.87491315    -2.26722962
 H                     1.19499073     2.59413927     6.68827393
 O                     2.91818002    -0.71302342     3.00504468
 H                    -3.82605065    -2.43686158     0.65803777
 H                    -0.54498295   -10.77585502     4.05096707
 H                     0.46610418    -9.50275279    -0.94529087
 H                     2.28047022    -6.31213729    -5.02434984
 At                    1.44831245    -0.81146068     1.82294770
