   154
 geometry
 O                    -1.98477131     1.28599794    -4.51228443
 H                     2.04886033    -5.49031831    -0.43677995
 H                    -6.78755468     7.70291961     3.10207509
 Si                    0.48599070    -7.72436557     3.31194674
 Si                   -2.50683518    -7.27991479    -0.20219181
 Si                   -1.46587746    -4.56524716    -3.35523816
 H                    -2.00757640     5.93962744    -0.42928275
 Si                    3.34011480    -4.63579410     1.53709669
 Si                   -0.36163873    -2.30860999    -1.44778372
 Si                   -1.99431966     0.35221040    -3.27765260
 H                     5.18813466     5.54111973    -3.90374167
 Si                    5.61009224    -0.26415847    -1.19413473
 Si                    0.25750342     2.26300883    -1.19616599
 Si                   -3.53918944     3.85788584    -1.13699083
 H                    -0.85896001    -8.43041042     1.41414278
 Si                    6.68266742     6.17819420    -1.50383227
 Si                    0.28037597     6.89873021    -0.41430520
 Si                   -4.30183158     6.91823284     3.33857389
 O                     4.37203551    -0.33271944    -2.38516710
 O                    -3.18478273    -3.37111288     3.82245581
 O                    -6.50886320    -2.72448508    -0.94234761
 O                     0.93035682     6.12896939    -1.71252953
 O                    -0.88312452     2.34810330    -2.46958614
 O                     1.42781945    -1.85561156     3.86596886
 O                    -3.61592540    -1.68519230     1.42276539
 O                    -3.33855180     7.74384164     2.28220096
 O                    -4.45845671     4.91767450    -2.00135740
 O                     3.58036282     1.64797400     2.76623893
 O                    -0.89076125     1.24266956     2.63992889
 H                     3.70618252    -0.93405838    -2.75290550
 H                     9.43846029     6.95132942    -1.74295464
 O                    -1.97950824     4.04859128    -1.63343518
 O                    -0.61750767    -1.63758018    -2.74581903
 O                     1.47913746    -3.82909829     5.15200773
 O                     6.05427359     1.43450606    -0.89673391
 Si                    4.18623628     3.13360701     2.39551595
 Si                   -0.95618049     2.81685934     3.25601115
 O                    -2.29081619    -3.46678767     1.31648149
 O                    -4.32868799    -2.31165783    -2.17850623
 H                    -4.85990644     5.68885726    -2.40856261
 H                     2.19989089    -7.23895855     1.45691135
 Si                    0.88496844    -4.64209468     3.82828905
 O                     6.49550534     4.43842562    -0.74738342
 O                     0.91181703     6.07185889     0.91174640
 O                     5.74285177     6.29325951    -3.09642423
 Si                   -2.61491066    -3.97404703    -0.09549057
 O                     0.12750849     3.78855354     2.48289786
 H                     1.37785717     5.42739751    -2.15739241
 H                    -5.83307919     2.30763424     2.81988684
 Si                   -3.58220313    -2.28462317    -3.44650512
 O                     2.81549029     4.17155863     1.85713535
 O                    -1.34696128     6.62688223    -0.30084593
 O                    -2.50777315    -5.58479172    -0.14144085
 O                    -3.69202350     3.83890654     0.50497411
 O                     5.87872931    -1.30116149     2.76576062
 O                    -5.87222244     7.42997722     3.12854326
 O                    -2.71664769    -3.49998149    -3.49778311
 H                     1.30297229    -9.73358122     4.76719971
 O                     0.55200339    -0.52423700     1.72228863
 H                    -1.95939141     1.90290131    -5.22618280
 H                     2.25772804     1.13417791    -2.19385150
 O                     6.19579111     7.47088027    -0.44039954
 O                    -3.52087669     0.26076008    -0.31568225
 H                     5.45101576     4.27240655     4.38064605
 O                     4.29962088    -3.22177956     1.47772263
 O                     0.60792007     8.52278968    -0.32296653
 H                    -0.73879144     3.02556864     5.84624494
 O                    -3.83904211     7.12438828     4.92433100
 H                    -5.32596307    -2.16434755    -5.24922294
 H                    -6.08446480    -0.10565882    -2.32645130
 H                     8.58654859     2.30717132     1.42338584
 H                    -3.83360340    -3.79854369     4.37874216
 H                    -7.40593374    -3.02581781    -0.99752972
 O                     2.12072246    -4.63708416     2.67606458
 O                    -1.51466952    -3.26771370    -0.97126942
 H                     1.28221083    -2.63104491     4.36188524
 H                    -3.77156602    -2.54610639     1.71906747
 O                    -5.00699267     2.68205626     2.50233633
 O                    -2.43643226     3.30735448     2.74666609
 O                     8.40766778     6.62474061    -1.69368931
 O                    -1.20649609    -7.93746062     0.62844514
 H                     5.27842346    -6.25748623     2.05174722
 O                    -2.53171962    -1.03193458    -3.71363236
 O                    -1.86850667    -1.43070080     2.61442095
 O                    -5.05514687    -1.04218468    -0.23884118
 O                    -1.69554744    -5.28649453    -1.98247334
 H                     3.13461140     0.81118733     2.94555195
 O                     1.64680285     0.80431644     3.73422462
 O                    -3.33561928     0.82119073     2.33525352
 H                    -0.84543740    -1.65360026    -3.58555702
 O                    -0.51665581    -3.85335268     3.31017744
 O                     4.97804920     3.80464160     3.69528929
 O                    -0.78252541     2.87212717     4.89796343
 O                     4.40584660    -5.90464765     1.87932264
 O                    -3.96081657    -3.37510733    -0.53863859
 H                    -1.34089918     0.59771805     2.07897125
 O                     5.25099429     3.08077256     1.11771829
 O                     1.12041067    -2.89363881    -1.44268315
 H                    -1.09313028     1.68203535    -3.10484796
 H                     1.82696416    -3.56133004     6.00171624
 O                    -4.66704120    -2.18651365    -4.57212100
 H                    -2.67527320     7.96568227     1.61521026
 O                     5.02998321    -0.91760738     0.21103345
 O                     6.88994369    -1.18449532    -1.78208093
 H                     6.56804724    -0.98664743     3.35474069
 Si                    6.45082749     2.90792373     0.01126729
 O                    -0.13900168     1.07961781    -0.20702806
 O                    -0.42102211    -1.26181777    -0.42404537
 O                     3.23665689    -0.87368311     2.27889270
 Si                    1.12438400     4.43816278     1.33701221
 H                    -1.95023036    -5.76076705    -1.25007875
 H                    -3.64628999     1.55944392     2.84107820
 H                    -1.75494907    -0.56338481     2.30178515
 Si                   -3.85008367     3.84431721     2.13959104
 O                     0.62688722     3.50318067    -0.14854066
 O                     1.03531827    -8.98461507     4.23287324
 O                    -0.73626194     0.59972087    -2.37515772
 H                    -1.16701349     3.55484284    -1.85028188
 O                    -3.85770082     2.33371564    -1.40795563
 H                     7.65727922    -1.66851846    -2.08997811
 H                    -2.32317705    -8.14166390    -2.66570033
 Si                    4.63180735    -1.52599843     1.70393659
 H                     1.62895607    -3.61949125    -1.10345169
 H                     0.22549480    -2.93350915    -2.87972174
 O                    -1.08648531    -7.96920052     2.86665523
 Si                   -0.45120389    -0.21356158     0.59022559
 O                    -1.70386239    -0.29123701     1.06740900
 O                     1.38673935    -7.55670410     1.84467513
 O                    -3.93977689    -7.81638266     0.50696169
 Si                   -3.95116254     0.87077918    -1.50296112
 H                    -0.08664951     0.16925078    -1.94651756
 O                     7.81997719     2.54267845     0.90707630
 O                     2.60938988    -4.86224586     0.03564860
 O                    -2.38728728    -7.68671725    -1.81904011
 O                    -5.27145550     0.25328618    -2.01391621
 O                     0.50612200    -6.25296572     4.11256630
 O                    -1.30689300    -5.59654061    -4.63253169
 O                    -0.25815586    -3.74424642    -3.27865381
 Si                   -1.90528708    -3.04541395     2.83615259
 Si                    1.73819290    -0.61774426     2.87391895
 H                    -1.92359179    -8.04747166     2.42084036
 H                    -4.86926379    -8.08953230     0.60595984
 Si                   -5.02492157    -2.34576617    -0.92829286
 Si                   -3.03983950    -0.20992657     1.18589856
 H                    -1.21873826    -6.18079352    -5.36595524
 O                    -4.14455817     5.32682984     2.82029030
 O                     1.58376687     1.80514616    -2.00984684
 H                    -5.53455326     0.01284194     0.04432061
 O                    -3.04043254     0.53962533    -2.44538968
 H                     1.04461242     1.52628053     3.95680988
 H                    -3.58337126     7.18817700     5.84161860
 H                     0.76090563     9.46603721    -0.31743218
 H                     5.68519354     8.27287647    -0.02653192
 At                   -2.31061394    -1.10879165    -0.85063202
