118

O      -4.22902222      -3.39454745      -4.16810034
H       4.73816208      -0.71534991      -1.55187640
O      -0.87690361       2.66513164      -3.14082068
O      -4.92949382      -4.64804748       0.55497590
O       7.25688872      -1.53195186       3.84520980
Si       1.82063163       1.86678306       2.11126817
O      -2.04839029      -2.00687132      -3.24520946
Si       6.18705708       0.49013282       0.23858423
Si       1.94453686      -1.82145644      -1.99139535
Si      -3.02898976      -3.35631249      -3.02764141
H       3.02775826       0.24220928      -2.94667809
Si       3.15783631       3.43933108      -2.79730239
Si      -1.82994979       1.87640754      -2.01757815
Si      -6.16982658      -0.48558951      -0.02382948
Si      -4.28150367      -3.20882122       0.05721347
H       8.07192648      -1.92552401       4.14623309
H      -4.64117006       0.76435536      -1.71484293
H      -0.78160485      -4.72689479       1.52638486
O       2.19376866       2.09632649      -3.10683701
O       3.41021899      -4.38810225       4.04468263
O       0.67825897      -7.78261305       0.18309676
O      -5.40056533      -1.97249112       0.07634123
O      -2.83937459       0.74755591      -2.71831300
O       2.57314301       0.92101943       3.26398160
O      -0.76159085      -2.96496721       2.63387650
O      -3.68599300      -3.33513433      -1.49957612
O      -7.75781704      -0.66974602      -0.47062806
O       0.39638775       5.34201341       1.11226474
O      -2.10876942       2.08121135       3.19153108
H       1.27321518       1.82572178      -3.21230014
H       5.52258096      -5.23203817      -0.98093344
O      -5.31797016       0.41852652      -1.11744661
O       1.02508579      -2.57247727      -3.16733902
O       5.25157560       0.25132780       4.29452555
O       2.14036464       4.75782892      -2.95283858
Si      -0.47430430       6.18431134      -0.01527150
Si      -3.44948151       3.05596260       2.90859152
O       3.34888270      -3.73936982       1.40022680
O      -0.14661089      -6.04810977      -1.74491651
H      -8.66318753      -0.77072631      -0.75133097
H      -8.20771716       1.80894921       3.87717702
Si       5.83369648      -0.92986164       3.24070723
O      -0.22723401       5.37165202      -4.09560621
O      -4.61060122       4.92330087      -0.73092535
Si       0.01654788       0.00003791       0.02299793
Si       3.22983159      -4.28569319      -0.17511088
O      -3.36720820       3.69765032       1.37571107
H       5.14695544       3.52920600      -4.48403083
H      -5.46502418      -1.04318573       4.74526764
Si      -0.80243370      -5.81993841      -3.25482504
O      -1.95612228       5.41139358      -0.15827423
Si       3.36297447      -3.14303581       2.95361187
O       4.67288816      -4.91329904      -0.68759077
O      -6.10430347       0.20851238       1.50409438
O       4.91378839       4.63018715       0.88764322
H      -0.24854290       2.93029779       3.07823998
O       0.39184148      -5.21640204      -4.28278466
Si       0.50772644      -6.17745712      -0.20374298
O       0.99351288       0.87963821       1.04389709
H      -4.93147133      -3.39048932      -4.81349041
H      -0.58706089       3.46761711      -3.60117268
O      -1.01395875      -0.90569255       0.96583370
O      -3.03234185      -2.73157972       1.06504967
H      -0.80667061       8.68484660       0.66593965
O       5.40560086       1.96983081       0.35118888
Si       4.28417988       3.20416152       0.33145897
H      -3.55773688       4.97895059       4.66954345
O      -7.37930779       1.42635513       3.59868137
H      -1.74922058      -8.06935106      -4.18423556
H      -5.26225006      -5.49308007       0.84626287
H       1.95614875       8.18119894      -3.86912888
H       3.41468322      -5.11883656       4.65772654
H       0.76977310      -8.69880302       0.42977734
O       6.06239341      -0.24969068       1.74117280
O       2.75183300      -3.00655007      -1.14452897
H       3.35893987       0.61900263       3.74405191
H       0.14051848      -3.03162994       2.98644565
O      -5.39070962      -0.36953148       4.07023543
O      -4.76953603       2.03430917       3.01052835
H       1.05503932      -5.25052880      -4.97131839
H      -1.12342330      -1.73591218      -3.29911435
H       8.70687921       0.80993444      -0.37459155
O      -2.00508751      -4.67048789      -3.17509701
O       2.00607872      -2.18348334       3.20913039
O      -0.42537339      -5.37075010       0.90013342
O       1.55697737       7.36261407      -3.58573901
H       0.72381926       4.67761015       1.73312722
O       0.67023348       2.88215762       2.76741750
O      -2.68542824      -1.02035894       3.11473331
H       0.75149264      -3.35639147      -3.66847033
O       4.67194160      -2.11905835       3.13934715
O      -0.67768041       7.77495675       0.41322201
O      -3.53535127       4.26817906       4.03359446
O       7.79117270       0.69531435      -0.13575526
O       1.99640345      -5.40659447      -0.23541901
H      -1.82733277       1.16152868       3.26610101
O       0.26799205       6.10910173      -1.51991707
O       2.97575837      -0.67457268      -2.62821216
H      -2.87935748      -0.16061567      -3.06264768
H       5.29666411       0.91069709       4.98585429
O      -1.37522654      -7.24737973      -3.87701778
H      -0.89051657       5.44052091      -4.78114921
O       3.73615554       3.37261536      -1.23875946
O       4.41463729       3.51415703      -3.87291083
H       5.23419792       5.46710751       1.21413095
Si       0.95249907       5.92343714      -3.02334222
O      -0.84988776       1.01665813      -0.97039061
O       0.93630331      -0.99150746      -0.94684719
O       3.00627643       2.69759575       1.28785388
Si      -3.18660099       4.28585229      -0.17845209
O       5.38717009      -0.38511598      -0.91609997
H      -3.48971192      -0.73535699       3.57450167
H       1.71437080      -1.26859494       3.29939842
Si      -5.93344752       0.84320899       3.03076364
O      -2.66692695       3.03536533      -1.16342497
Si      -1.88383878      -1.92740953       1.96409818
H      -5.45002649       5.24702907      -1.04760601
Bi       0.14805447       0.05370013      -5.61819922
